101129992
  -OEChem-03112307023D

 39 40  0     1  0  0  0  0  0999 V2000
    1.6528   -2.2871    0.1504 O   0  0  0  0  0  0  0  0  0  0  0  0
    0.4786    2.8453    0.7038 O   0  0  0  0  0  0  0  0  0  0  0  0
    1.9425    1.1998    0.0347 N   0  0  0  0  0  0  0  0  0  0  0  0
    0.1023   -0.6314    0.5406 N   0  0  0  0  0  0  0  0  0  0  0  0
    2.1205   -0.0554   -0.6805 C   0  0  1  0  0  0  0  0  0  0  0  0
    3.5906   -0.4289   -0.7817 C   0  0  2  0  0  0  0  0  0  0  0  0
   -0.4237    0.6647    0.1381 C   0  0  2  0  0  0  0  0  0  0  0  0
    4.2606   -0.5886    0.5980 C   0  0  0  0  0  0  0  0  0  0  0  0
    1.3163   -1.1083    0.0701 C   0  0  0  0  0  0  0  0  0  0  0  0
    0.6858    1.6817    0.3684 C   0  0  0  0  0  0  0  0  0  0  0  0
   -1.6841    1.0134    0.9133 C   0  0  0  0  0  0  0  0  0  0  0  0
    4.3465    0.6260   -1.5987 C   0  0  0  0  0  0  0  0  0  0  0  0
    5.7351   -0.9569    0.5160 C   0  0  0  0  0  0  0  0  0  0  0  0
   -2.8973    0.3164    0.3547 C   0  0  0  0  0  0  0  0  0  0  0  0
   -3.6556    0.9282   -0.6434 C   0  0  0  0  0  0  0  0  0  0  0  0
   -3.2623   -0.9408    0.8360 C   0  0  0  0  0  0  0  0  0  0  0  0
   -4.7790    0.2827   -1.1603 C   0  0  0  0  0  0  0  0  0  0  0  0
   -4.3856   -1.5863    0.3192 C   0  0  0  0  0  0  0  0  0  0  0  0
   -5.1440   -0.9745   -0.6789 C   0  0  0  0  0  0  0  0  0  0  0  0
    1.6767    0.0576   -1.6775 H   0  0  0  0  0  0  0  0  0  0  0  0
    3.6716   -1.3847   -1.3166 H   0  0  0  0  0  0  0  0  0  0  0  0
   -0.6135    0.6301   -0.9425 H   0  0  0  0  0  0  0  0  0  0  0  0
    3.7574   -1.3706    1.1762 H   0  0  0  0  0  0  0  0  0  0  0  0
    4.1727    0.3342    1.1839 H   0  0  0  0  0  0  0  0  0  0  0  0
    2.7172    1.8517    0.1062 H   0  0  0  0  0  0  0  0  0  0  0  0
   -0.5109   -1.2962    1.0009 H   0  0  0  0  0  0  0  0  0  0  0  0
   -1.8772    2.0937    0.8844 H   0  0  0  0  0  0  0  0  0  0  0  0
   -1.5723    0.7712    1.9788 H   0  0  0  0  0  0  0  0  0  0  0  0
    4.5123    1.5520   -1.0389 H   0  0  0  0  0  0  0  0  0  0  0  0
    3.7997    0.8758   -2.5148 H   0  0  0  0  0  0  0  0  0  0  0  0
    5.3253    0.2490   -1.9138 H   0  0  0  0  0  0  0  0  0  0  0  0
    6.3388   -0.1339    0.1224 H   0  0  0  0  0  0  0  0  0  0  0  0
    6.1174   -1.1895    1.5156 H   0  0  0  0  0  0  0  0  0  0  0  0
    5.8874   -1.8377   -0.1157 H   0  0  0  0  0  0  0  0  0  0  0  0
   -3.3803    1.9065   -1.0285 H   0  0  0  0  0  0  0  0  0  0  0  0
   -2.6883   -1.4267    1.6201 H   0  0  0  0  0  0  0  0  0  0  0  0
   -5.3692    0.7588   -1.9379 H   0  0  0  0  0  0  0  0  0  0  0  0
   -4.6712   -2.5643    0.6955 H   0  0  0  0  0  0  0  0  0  0  0  0
   -6.0189   -1.4770   -1.0810 H   0  0  0  0  0  0  0  0  0  0  0  0
  1  9  2  0  0  0  0
  2 10  2  0  0  0  0
  3  5  1  0  0  0  0
  3 10  1  0  0  0  0
  3 25  1  0  0  0  0
  4  7  1  0  0  0  0
  4  9  1  0  0  0  0
  4 26  1  0  0  0  0
  5  6  1  0  0  0  0
  5  9  1  0  0  0  0
  5 20  1  0  0  0  0
  6  8  1  0  0  0  0
  6 12  1  0  0  0  0
  6 21  1  0  0  0  0
  7 10  1  0  0  0  0
  7 11  1  0  0  0  0
  7 22  1  0  0  0  0
  8 13  1  0  0  0  0
  8 23  1  0  0  0  0
  8 24  1  0  0  0  0
 11 14  1  0  0  0  0
 11 27  1  0  0  0  0
 11 28  1  0  0  0  0
 12 29  1  0  0  0  0
 12 30  1  0  0  0  0
 12 31  1  0  0  0  0
 13 32  1  0  0  0  0
 13 33  1  0  0  0  0
 13 34  1  0  0  0  0
 14 15  2  0  0  0  0
 14 16  1  0  0  0  0
 15 17  1  0  0  0  0
 15 35  1  0  0  0  0
 16 18  2  0  0  0  0
 16 36  1  0  0  0  0
 17 19  2  0  0  0  0
 17 37  1  0  0  0  0
 18 19  1  0  0  0  0
 18 38  1  0  0  0  0
 19 39  1  0  0  0  0
M  END
> <PUBCHEM_COMPOUND_CID>
101129992

> <PUBCHEM_CONFORMER_RMSD>
0.6

> <PUBCHEM_CONFORMER_DIVERSEORDER>
1
58
56
21
32
57
55
23
59
38
49
46
18
26
31
62
37
29
39
47
25
15
17
22
19
36
41
61
8
12
10
7
11
34
53
13
16
43
44
45
3
33
50
6
20
24
52
4
28
48
60
14
54
35
5
9
30
2
40
51
27
42

> <PUBCHEM_MMFF94_PARTIAL_CHARGES>
22
1 -0.57
10 0.57
11 0.14
14 -0.14
15 -0.15
16 -0.15
17 -0.15
18 -0.15
19 -0.15
2 -0.57
25 0.37
26 0.37
3 -0.73
35 0.15
36 0.15
37 0.15
38 0.15
39 0.15
4 -0.73
5 0.36
7 0.36
9 0.57

> <PUBCHEM_EFFECTIVE_ROTOR_COUNT>
4.8

> <PUBCHEM_PHARMACOPHORE_FEATURES>
8
1 1 acceptor
1 12 hydrophobe
1 13 hydrophobe
1 2 acceptor
1 3 donor
1 4 donor
6 14 15 16 17 18 19 rings
6 3 4 5 7 9 10 rings

> <PUBCHEM_HEAVY_ATOM_COUNT>
19

> <PUBCHEM_ATOM_DEF_STEREO_COUNT>
3

> <PUBCHEM_ATOM_UDEF_STEREO_COUNT>
0

> <PUBCHEM_BOND_DEF_STEREO_COUNT>
0

> <PUBCHEM_BOND_UDEF_STEREO_COUNT>
0

> <PUBCHEM_ISOTOPIC_ATOM_COUNT>
0

> <PUBCHEM_COMPONENT_COUNT>
1

> <PUBCHEM_CACTVS_TAUTO_COUNT>
8

> <PUBCHEM_CONFORMER_ID>
06071F0800000001

> <PUBCHEM_MMFF94_ENERGY>
57.1776

> <PUBCHEM_FEATURE_SELFOVERLAP>
40.606

> <PUBCHEM_SHAPE_FINGERPRINT>
10447042 23 18409443683488796718
10803635 8 18186795873104254623
11796584 16 17385441012107512018
11806522 49 18272370879762122944
12236239 1 18040997328652754938
12251169 10 10663816378134610513
12553582 1 18342188747466300633
12596602 18 13758356674222376295
12670546 177 17967816058994518493
13583140 156 13757788157875034657
13760787 5 18041574576082838720
13862211 1 18412542098597642274
14252887 29 17418381272494995676
14576447 43 18343299275516678055
15788980 27 17240485796910267970
17349148 13 18260274010326711722
1813 80 17274834557374021157
18222031 100 18060706091396590148
193927 3 17845947298273330269
19433438 38 18114179722795721407
200 152 18273213101827485307
20374829 77 18410290320369186533
20645477 70 18130504240747760181
20671657 53 18343024402121070017
21267235 1 18341338841841764347
221490 88 18194125337710478963
23402539 116 18343300332094171050
23557571 272 17986951851995761872
23559900 14 18336536235793240585
2838139 119 16226624008009824476
2871803 45 18410576193017868453
293599 30 8718821003435114762
3004659 81 18040433274766150994
314173 85 17632864109416122249
474229 33 18412824677507535502
4921388 177 16443356398903741515
5104073 3 18272376416349488761
59755656 215 18339364063962993862
9709674 26 18119807165304395955

> <PUBCHEM_SHAPE_MULTIPOLES>
369.31
11.65
1.92
1.1
0.47
0.46
-0.25
-4.19
-2.52
0.03
0.42
0.15
0.16
-0.21

> <PUBCHEM_SHAPE_SELFOVERLAP>
767.718

> <PUBCHEM_SHAPE_VOLUME>
208.3

> <PUBCHEM_COORDINATE_TYPE>
2
5
10

$$$$
