101491236
  -OEChem-03102309053D

 56 58  0     1  0  0  0  0  0999 V2000
    0.4458   -1.4820   -2.4178 O   0  0  0  0  0  0  0  0  0  0  0  0
    2.2422    1.9849   -0.7195 O   0  0  0  0  0  0  0  0  0  0  0  0
   -2.2716    0.7577    0.1378 O   0  0  0  0  0  0  0  0  0  0  0  0
   -1.3383    3.2983   -1.0218 O   0  0  0  0  0  0  0  0  0  0  0  0
    1.6473   -0.9496    0.7966 C   0  0  2  0  0  0  0  0  0  0  0  0
    1.7159   -0.3843   -0.6514 C   0  0  1  0  0  0  0  0  0  0  0  0
    2.8228   -1.9545    0.8952 C   0  0  0  0  0  0  0  0  0  0  0  0
   -0.5904   -1.0282   -0.2478 C   0  0  2  0  0  0  0  0  0  0  0  0
    0.2075   -1.4733    0.9985 C   0  0  0  0  0  0  0  0  0  0  0  0
    3.0821   -0.7601   -1.2097 C   0  0  0  0  0  0  0  0  0  0  0  0
    3.8717   -1.2658   -0.0003 C   0  0  0  0  0  0  0  0  0  0  0  0
    0.5251   -1.0740   -1.2705 C   0  0  0  0  0  0  0  0  0  0  0  0
    1.3904    1.1090   -0.6016 C   0  0  0  0  0  0  0  0  0  0  0  0
   -0.9529    0.4631   -0.1690 C   0  0  0  0  0  0  0  0  0  0  0  0
    2.5239   -3.3670    0.3597 C   0  0  0  0  0  0  0  0  0  0  0  0
    3.3265   -2.0768    2.3376 C   0  0  0  0  0  0  0  0  0  0  0  0
   -1.7149   -1.9925   -0.6080 C   0  0  0  0  0  0  0  0  0  0  0  0
   -0.0544    1.4602   -0.3438 C   0  0  0  0  0  0  0  0  0  0  0  0
   -2.7737   -2.0126    0.4542 C   0  0  0  0  0  0  0  0  0  0  0  0
   -0.4858    2.8617   -0.2462 C   0  0  0  0  0  0  0  0  0  0  0  0
    0.1761    3.7259    0.8245 C   0  0  0  0  0  0  0  0  0  0  0  0
   -4.0881   -1.7562    0.3129 C   0  0  0  0  0  0  0  0  0  0  0  0
    0.9009    4.8956    0.1668 C   0  0  0  0  0  0  0  0  0  0  0  0
   -0.8506    4.2247    1.8387 C   0  0  0  0  0  0  0  0  0  0  0  0
   -5.1005   -1.7935    1.4224 C   0  0  0  0  0  0  0  0  0  0  0  0
   -4.6570   -1.4105   -1.0374 C   0  0  0  0  0  0  0  0  0  0  0  0
    1.8207   -0.1354    1.5161 H   0  0  0  0  0  0  0  0  0  0  0  0
    0.1838   -2.5598    1.1180 H   0  0  0  0  0  0  0  0  0  0  0  0
   -0.2187   -1.0551    1.9190 H   0  0  0  0  0  0  0  0  0  0  0  0
    3.6046    0.0757   -1.6856 H   0  0  0  0  0  0  0  0  0  0  0  0
    3.0068   -1.5559   -1.9595 H   0  0  0  0  0  0  0  0  0  0  0  0
    4.6858   -1.9341   -0.3000 H   0  0  0  0  0  0  0  0  0  0  0  0
    4.3221   -0.4102    0.5195 H   0  0  0  0  0  0  0  0  0  0  0  0
    1.8614   -3.9217    1.0323 H   0  0  0  0  0  0  0  0  0  0  0  0
    3.4479   -3.9514    0.2757 H   0  0  0  0  0  0  0  0  0  0  0  0
    2.0586   -3.3518   -0.6301 H   0  0  0  0  0  0  0  0  0  0  0  0
    2.5548   -2.5039    2.9875 H   0  0  0  0  0  0  0  0  0  0  0  0
    3.6047   -1.1008    2.7508 H   0  0  0  0  0  0  0  0  0  0  0  0
    4.2110   -2.7212    2.3926 H   0  0  0  0  0  0  0  0  0  0  0  0
   -2.1101   -1.7519   -1.5990 H   0  0  0  0  0  0  0  0  0  0  0  0
   -1.3162   -3.0117   -0.7037 H   0  0  0  0  0  0  0  0  0  0  0  0
   -2.4302   -2.2850    1.4512 H   0  0  0  0  0  0  0  0  0  0  0  0
   -2.4022    1.7175    0.1891 H   0  0  0  0  0  0  0  0  0  0  0  0
    0.9135    3.1222    1.3670 H   0  0  0  0  0  0  0  0  0  0  0  0
    0.1984    5.5605   -0.3482 H   0  0  0  0  0  0  0  0  0  0  0  0
    1.6245    4.5487   -0.5773 H   0  0  0  0  0  0  0  0  0  0  0  0
    1.4408    5.4873    0.9133 H   0  0  0  0  0  0  0  0  0  0  0  0
   -1.6112    4.8518    1.3607 H   0  0  0  0  0  0  0  0  0  0  0  0
   -1.3688    3.3815    2.3081 H   0  0  0  0  0  0  0  0  0  0  0  0
   -0.3689    4.8114    2.6275 H   0  0  0  0  0  0  0  0  0  0  0  0
   -4.6434   -2.0804    2.3751 H   0  0  0  0  0  0  0  0  0  0  0  0
   -5.8871   -2.5205    1.1965 H   0  0  0  0  0  0  0  0  0  0  0  0
   -5.5591   -0.8085    1.5553 H   0  0  0  0  0  0  0  0  0  0  0  0
   -4.9943   -2.3173   -1.5492 H   0  0  0  0  0  0  0  0  0  0  0  0
   -5.5234   -0.7483   -0.9247 H   0  0  0  0  0  0  0  0  0  0  0  0
   -3.9610   -0.8707   -1.6836 H   0  0  0  0  0  0  0  0  0  0  0  0
  1 12  2  0  0  0  0
  2 13  2  0  0  0  0
  3 14  1  0  0  0  0
  3 43  1  0  0  0  0
  4 20  2  0  0  0  0
  5  6  1  0  0  0  0
  5  7  1  0  0  0  0
  5  9  1  0  0  0  0
  5 27  1  0  0  0  0
  6 10  1  0  0  0  0
  6 12  1  0  0  0  0
  6 13  1  0  0  0  0
  7 11  1  0  0  0  0
  7 15  1  0  0  0  0
  7 16  1  0  0  0  0
  8  9  1  0  0  0  0
  8 12  1  0  0  0  0
  8 14  1  0  0  0  0
  8 17  1  0  0  0  0
  9 28  1  0  0  0  0
  9 29  1  0  0  0  0
 10 11  1  0  0  0  0
 10 30  1  0  0  0  0
 10 31  1  0  0  0  0
 11 32  1  0  0  0  0
 11 33  1  0  0  0  0
 13 18  1  0  0  0  0
 14 18  2  0  0  0  0
 15 34  1  0  0  0  0
 15 35  1  0  0  0  0
 15 36  1  0  0  0  0
 16 37  1  0  0  0  0
 16 38  1  0  0  0  0
 16 39  1  0  0  0  0
 17 19  1  0  0  0  0
 17 40  1  0  0  0  0
 17 41  1  0  0  0  0
 18 20  1  0  0  0  0
 19 22  2  0  0  0  0
 19 42  1  0  0  0  0
 20 21  1  0  0  0  0
 21 23  1  0  0  0  0
 21 24  1  0  0  0  0
 21 44  1  0  0  0  0
 22 25  1  0  0  0  0
 22 26  1  0  0  0  0
 23 45  1  0  0  0  0
 23 46  1  0  0  0  0
 23 47  1  0  0  0  0
 24 48  1  0  0  0  0
 24 49  1  0  0  0  0
 24 50  1  0  0  0  0
 25 51  1  0  0  0  0
 25 52  1  0  0  0  0
 25 53  1  0  0  0  0
 26 54  1  0  0  0  0
 26 55  1  0  0  0  0
 26 56  1  0  0  0  0
M  END
> <PUBCHEM_COMPOUND_CID>
101491236

> <PUBCHEM_CONFORMER_RMSD>
0.8

> <PUBCHEM_CONFORMER_DIVERSEORDER>
1
10
22
31
34
15
32
30
9
27
19
25
3
24
6
17
12
33
21
18
16
28
23
26
5
13
20
8
14
7
29
4
11
2

> <PUBCHEM_MMFF94_PARTIAL_CHARGES>
19
1 -0.57
12 0.45
13 0.49
14 -0.06
17 0.14
18 0.03
19 -0.29
2 -0.57
20 0.49
21 0.06
22 -0.28
25 0.14
26 0.14
3 -0.53
4 -0.57
42 0.15
43 0.45
6 0.12
8 0.2

> <PUBCHEM_EFFECTIVE_ROTOR_COUNT>
4.8

> <PUBCHEM_PHARMACOPHORE_FEATURES>
9
1 1 acceptor
1 2 acceptor
1 3 donor
1 4 acceptor
3 21 23 24 hydrophobe
3 22 25 26 hydrophobe
3 7 15 16 hydrophobe
5 5 6 7 10 11 rings
8 5 6 8 9 12 13 14 18 rings

> <PUBCHEM_HEAVY_ATOM_COUNT>
26

> <PUBCHEM_ATOM_DEF_STEREO_COUNT>
2

> <PUBCHEM_ATOM_UDEF_STEREO_COUNT>
1

> <PUBCHEM_BOND_DEF_STEREO_COUNT>
0

> <PUBCHEM_BOND_UDEF_STEREO_COUNT>
0

> <PUBCHEM_ISOTOPIC_ATOM_COUNT>
0

> <PUBCHEM_COMPONENT_COUNT>
1

> <PUBCHEM_CACTVS_TAUTO_COUNT>
7

> <PUBCHEM_CONFORMER_ID>
060CA22400000001

> <PUBCHEM_MMFF94_ENERGY>
87.2426

> <PUBCHEM_FEATURE_SELFOVERLAP>
45.722

> <PUBCHEM_SHAPE_FINGERPRINT>
10064457 181 17332524575610937514
10863032 1 17833830470003945190
1100329 8 18265894662249920129
11578080 2 17459725155761560909
12160290 23 18051687746432502637
12293681 160 17974318665567133420
12549972 3 17822851004977168763
12553582 1 18409728478017025183
12788726 201 18262237716355826450
13009979 54 18115588119844990402
13134695 92 18339069493160804311
13140716 1 18338801117702451425
13583140 156 18045782553502239319
13878862 14 18265883835322396469
14178342 30 17113826189318511713
14787075 74 18187936143960782278
14790565 3 17686910818223178357
14866123 147 17255112346892988443
15230672 131 17253994664076630884
15420108 30 17699843226574737644
15664445 248 18198926831842865638
16945 1 18267017254931282934
17980427 23 17846498171200714915
17980427 26 17835794570852800069
18681886 176 17486789733374556983
20905425 154 18410580608112796060
21041028 32 18410291414963374270
21344244 78 18342733061741611883
21524375 3 17117203339635926047
21731228 192 17331392069949370024
23419403 2 17246624443511448926
23557571 272 18055067666498180414
23558518 356 17546432393694238591
23559900 14 17677891426051733735
3091708 16 9426564543210929561
345986 75 18042111086033347083
34934 24 18197218272356444830
352729 6 18122057598732743399
376196 1 17050497047094799557
394222 165 17839187659673394347
474 4 17690279739372482793
58807428 26 16825297815518713562
5895379 119 17343540814959839681
6442390 28 17335078758255066769
70251023 43 18267047019018143158
79837 15 17474102103623901611
81228 2 18120078490582419530
84936 182 17695356167246427329

> <PUBCHEM_SHAPE_MULTIPOLES>
511.59
6.42
5.56
1.62
7.16
9.05
-0.22
-7.26
-1.43
-1.11
-1.88
-0.4
-0.4
-0.64

> <PUBCHEM_SHAPE_SELFOVERLAP>
1094.769

> <PUBCHEM_SHAPE_VOLUME>
287.7

> <PUBCHEM_COORDINATE_TYPE>
2
5
10

$$$$
