101491239
  -OEChem-03102309053D

 63 65  0     1  0  0  0  0  0999 V2000
    0.5514   -0.5566   -2.5960 O   0  0  0  0  0  0  0  0  0  0  0  0
   -0.7160    2.8776   -0.3969 O   0  0  0  0  0  0  0  0  0  0  0  0
   -2.9809   -1.3532   -0.2683 O   0  0  0  0  0  0  0  0  0  0  0  0
   -4.1376    1.4056   -1.1013 O   0  0  0  0  0  0  0  0  0  0  0  0
    0.9170    0.2014    0.7705 C   0  0  2  0  0  0  0  0  0  0  0  0
    0.5978    0.8508   -0.6064 C   0  0  1  0  0  0  0  0  0  0  0  0
    2.4614    0.3072    0.9219 C   0  0  0  0  0  0  0  0  0  0  0  0
    2.7074    1.6881    0.2447 C   0  0  2  0  0  0  0  0  0  0  0  0
   -0.5695   -1.2683   -0.5439 C   0  0  2  0  0  0  0  0  0  0  0  0
    0.2589   -1.1960    0.7586 C   0  0  0  0  0  0  0  0  0  0  0  0
    1.8366    1.6353   -1.0237 C   0  0  0  0  0  0  0  0  0  0  0  0
    0.2766   -0.3764   -1.4212 C   0  0  0  0  0  0  0  0  0  0  0  0
   -0.6974    1.6515   -0.4683 C   0  0  0  0  0  0  0  0  0  0  0  0
    2.8543    0.3248    2.4065 C   0  0  0  0  0  0  0  0  0  0  0  0
    3.2467   -0.8267    0.2280 C   0  0  0  0  0  0  0  0  0  0  0  0
   -1.8949   -0.5072   -0.3996 C   0  0  0  0  0  0  0  0  0  0  0  0
   -0.6800   -2.6838   -1.0968 C   0  0  0  0  0  0  0  0  0  0  0  0
   -1.9788    0.8476   -0.3737 C   0  0  0  0  0  0  0  0  0  0  0  0
    4.1265    2.0573   -0.0455 C   0  0  0  0  0  0  0  0  0  0  0  0
   -0.9868   -3.6682   -0.0080 C   0  0  0  0  0  0  0  0  0  0  0  0
    4.8385    2.8365    1.0202 C   0  0  0  0  0  0  0  0  0  0  0  0
   -3.2637    1.5542   -0.2441 C   0  0  0  0  0  0  0  0  0  0  0  0
    4.7286    1.7120   -1.1932 C   0  0  0  0  0  0  0  0  0  0  0  0
   -3.4424    2.4705    0.9646 C   0  0  0  0  0  0  0  0  0  0  0  0
   -0.2254   -4.6965    0.4119 C   0  0  0  0  0  0  0  0  0  0  0  0
   -4.3691    3.6262    0.6019 C   0  0  0  0  0  0  0  0  0  0  0  0
   -3.9832    1.6973    2.1649 C   0  0  0  0  0  0  0  0  0  0  0  0
    1.1155   -4.9605   -0.2198 C   0  0  0  0  0  0  0  0  0  0  0  0
   -0.5919   -5.6506    1.5130 C   0  0  0  0  0  0  0  0  0  0  0  0
    0.4489    0.7922    1.5723 H   0  0  0  0  0  0  0  0  0  0  0  0
    2.2749    2.4761    0.8807 H   0  0  0  0  0  0  0  0  0  0  0  0
    1.0111   -1.9848    0.8049 H   0  0  0  0  0  0  0  0  0  0  0  0
   -0.3734   -1.3197    1.6471 H   0  0  0  0  0  0  0  0  0  0  0  0
    1.6004    2.6503   -1.3637 H   0  0  0  0  0  0  0  0  0  0  0  0
    2.3022    1.1291   -1.8712 H   0  0  0  0  0  0  0  0  0  0  0  0
    2.4805   -0.5715    2.9146 H   0  0  0  0  0  0  0  0  0  0  0  0
    2.4368    1.1954    2.9240 H   0  0  0  0  0  0  0  0  0  0  0  0
    3.9403    0.3418    2.5387 H   0  0  0  0  0  0  0  0  0  0  0  0
    3.0813   -1.7891    0.7233 H   0  0  0  0  0  0  0  0  0  0  0  0
    4.3275   -0.6572    0.2807 H   0  0  0  0  0  0  0  0  0  0  0  0
    2.9769   -0.9454   -0.8250 H   0  0  0  0  0  0  0  0  0  0  0  0
   -1.4609   -2.7472   -1.8655 H   0  0  0  0  0  0  0  0  0  0  0  0
    0.2476   -2.9439   -1.6162 H   0  0  0  0  0  0  0  0  0  0  0  0
   -1.9480   -3.5413    0.4863 H   0  0  0  0  0  0  0  0  0  0  0  0
    4.3024    3.7673    1.2334 H   0  0  0  0  0  0  0  0  0  0  0  0
    4.9200    2.2637    1.9465 H   0  0  0  0  0  0  0  0  0  0  0  0
    5.8548    3.1092    0.7156 H   0  0  0  0  0  0  0  0  0  0  0  0
   -3.7836   -0.8163   -0.1617 H   0  0  0  0  0  0  0  0  0  0  0  0
    5.7611    2.0006   -1.3712 H   0  0  0  0  0  0  0  0  0  0  0  0
    4.2785    1.1224   -1.9792 H   0  0  0  0  0  0  0  0  0  0  0  0
   -2.4780    2.9010    1.2493 H   0  0  0  0  0  0  0  0  0  0  0  0
   -5.3780    3.2740    0.3595 H   0  0  0  0  0  0  0  0  0  0  0  0
   -3.9895    4.1717   -0.2691 H   0  0  0  0  0  0  0  0  0  0  0  0
   -4.4510    4.3341    1.4335 H   0  0  0  0  0  0  0  0  0  0  0  0
   -4.9503    1.2366    1.9353 H   0  0  0  0  0  0  0  0  0  0  0  0
   -3.2968    0.8926    2.4497 H   0  0  0  0  0  0  0  0  0  0  0  0
   -4.1124    2.3552    3.0303 H   0  0  0  0  0  0  0  0  0  0  0  0
    1.1009   -4.8399   -1.3066 H   0  0  0  0  0  0  0  0  0  0  0  0
    1.4292   -5.9955   -0.0408 H   0  0  0  0  0  0  0  0  0  0  0  0
    1.8786   -4.3051    0.2113 H   0  0  0  0  0  0  0  0  0  0  0  0
   -1.5595   -5.3982    1.9592 H   0  0  0  0  0  0  0  0  0  0  0  0
    0.1601   -5.6216    2.3082 H   0  0  0  0  0  0  0  0  0  0  0  0
   -0.6580   -6.6731    1.1278 H   0  0  0  0  0  0  0  0  0  0  0  0
  1 12  2  0  0  0  0
  2 13  2  0  0  0  0
  3 16  1  0  0  0  0
  3 48  1  0  0  0  0
  4 22  2  0  0  0  0
  5  6  1  0  0  0  0
  5  7  1  0  0  0  0
  5 10  1  0  0  0  0
  5 30  1  0  0  0  0
  6 11  1  0  0  0  0
  6 12  1  0  0  0  0
  6 13  1  0  0  0  0
  7  8  1  0  0  0  0
  7 14  1  0  0  0  0
  7 15  1  0  0  0  0
  8 11  1  0  0  0  0
  8 19  1  0  0  0  0
  8 31  1  0  0  0  0
  9 10  1  0  0  0  0
  9 12  1  0  0  0  0
  9 16  1  0  0  0  0
  9 17  1  0  0  0  0
 10 32  1  0  0  0  0
 10 33  1  0  0  0  0
 11 34  1  0  0  0  0
 11 35  1  0  0  0  0
 13 18  1  0  0  0  0
 14 36  1  0  0  0  0
 14 37  1  0  0  0  0
 14 38  1  0  0  0  0
 15 39  1  0  0  0  0
 15 40  1  0  0  0  0
 15 41  1  0  0  0  0
 16 18  2  0  0  0  0
 17 20  1  0  0  0  0
 17 42  1  0  0  0  0
 17 43  1  0  0  0  0
 18 22  1  0  0  0  0
 19 21  1  0  0  0  0
 19 23  2  0  0  0  0
 20 25  2  0  0  0  0
 20 44  1  0  0  0  0
 21 45  1  0  0  0  0
 21 46  1  0  0  0  0
 21 47  1  0  0  0  0
 22 24  1  0  0  0  0
 23 49  1  0  0  0  0
 23 50  1  0  0  0  0
 24 26  1  0  0  0  0
 24 27  1  0  0  0  0
 24 51  1  0  0  0  0
 25 28  1  0  0  0  0
 25 29  1  0  0  0  0
 26 52  1  0  0  0  0
 26 53  1  0  0  0  0
 26 54  1  0  0  0  0
 27 55  1  0  0  0  0
 27 56  1  0  0  0  0
 27 57  1  0  0  0  0
 28 58  1  0  0  0  0
 28 59  1  0  0  0  0
 28 60  1  0  0  0  0
 29 61  1  0  0  0  0
 29 62  1  0  0  0  0
 29 63  1  0  0  0  0
M  END
> <PUBCHEM_COMPOUND_CID>
101491239

> <PUBCHEM_CONFORMER_RMSD>
0.8

> <PUBCHEM_CONFORMER_DIVERSEORDER>
2
72
9
78
60
79
46
80
73
70
47
33
62
30
29
77
81
14
65
74
13
31
66
48
52
59
34
39
63
45
57
21
12
69
68
76
53
64
17
58
32
71
22
56
67
43
61
49
40
37
1
27
11
15
20
42
50
35
25
36
54
4
28
41
16
75
44
24
38
18
10
8
6
51
26
23
5
55
3
7
19

> <PUBCHEM_MMFF94_PARTIAL_CHARGES>
25
1 -0.57
12 0.45
13 0.49
16 -0.06
17 0.14
18 0.03
19 -0.28
2 -0.57
20 -0.29
21 0.14
22 0.49
23 -0.3
24 0.06
25 -0.28
28 0.14
29 0.14
3 -0.53
4 -0.57
44 0.15
48 0.45
49 0.15
50 0.15
6 0.12
8 0.14
9 0.2

> <PUBCHEM_EFFECTIVE_ROTOR_COUNT>
5.8

> <PUBCHEM_PHARMACOPHORE_FEATURES>
9
1 1 acceptor
1 2 acceptor
1 3 donor
1 4 acceptor
3 24 26 27 hydrophobe
3 25 28 29 hydrophobe
3 7 14 15 hydrophobe
5 5 6 7 8 11 rings
8 5 6 9 10 12 13 16 18 rings

> <PUBCHEM_HEAVY_ATOM_COUNT>
29

> <PUBCHEM_ATOM_DEF_STEREO_COUNT>
2

> <PUBCHEM_ATOM_UDEF_STEREO_COUNT>
2

> <PUBCHEM_BOND_DEF_STEREO_COUNT>
0

> <PUBCHEM_BOND_UDEF_STEREO_COUNT>
0

> <PUBCHEM_ISOTOPIC_ATOM_COUNT>
0

> <PUBCHEM_COMPONENT_COUNT>
1

> <PUBCHEM_CACTVS_TAUTO_COUNT>
7

> <PUBCHEM_CONFORMER_ID>
060CA22700000002

> <PUBCHEM_MMFF94_ENERGY>
101.7437

> <PUBCHEM_FEATURE_SELFOVERLAP>
45.721

> <PUBCHEM_SHAPE_FINGERPRINT>
10074138 170 18196639903354484064
10411042 1 17256243173453801586
10794284 68 16963282624900735857
107951 10 18341909488661229094
10863032 1 18412544327485156908
10948715 1 18272651225157439437
12160290 23 18054203673707597479
12553582 1 17544181036378579986
12788726 201 18052237768529613911
13134695 92 17472704628956534855
13140716 1 18338803312383149761
133893 2 17981588382914789119
13583140 156 17385446548579286445
13955234 65 18050300171738807817
13965767 371 18188774920598437997
14713325 29 18053397766497915028
14790565 3 18410299090376426580
14856354 85 16588601897680884504
14955137 171 17905893578716558634
15042514 8 17904488750342682967
15475509 84 17113842124332995747
16945 1 18125710433873746917
17980427 26 18196927777848114877
18785283 64 18121502353808713411
20600515 1 17406861921046889835
20739085 24 18189628145942868204
20775438 99 15822930870731446367
21120745 212 17616553073229373333
21796203 349 16458850995782657226
22121540 332 13965602564411361096
23366157 5 18049158861330849855
23419403 2 17339616648695333823
23557571 272 17910947264770026368
23559900 14 18122332489334853798
283562 15 18341606084056219119
3091708 16 8905584048228433191
376196 1 17989488498172143284
4058900 60 18125181366997107824
458136 41 18268437828038509073
474 4 18198622142779085057
5265222 85 18264786380720588142
58807428 26 18339638941093633219
633830 44 18130222649242865605
6673363 416 17112984522628595228
79837 15 18338524152188284914
9981440 41 18409728452705599193

> <PUBCHEM_SHAPE_MULTIPOLES>
573.33
7.34
6.41
1.69
2.97
11.36
-0.28
-10.34
-1.74
-3.59
-1.95
0.2
-0.05
-0.52

> <PUBCHEM_SHAPE_SELFOVERLAP>
1221.675

> <PUBCHEM_SHAPE_VOLUME>
324.1

> <PUBCHEM_COORDINATE_TYPE>
2
5
10

$$$$
