102261321
  -OEChem-03112306483D

 34 35  0     1  0  0  0  0  0999 V2000
    0.5255    2.7465    0.9368 O   0  0  0  0  0  0  0  0  0  0  0  0
    1.4384   -2.4675    0.8508 O   0  0  0  0  0  0  0  0  0  0  0  0
    4.1526    0.6479   -1.7509 O   0  0  0  0  0  0  0  0  0  0  0  0
   -0.0439   -0.7076    0.9058 N   0  0  0  0  0  0  0  0  0  0  0  0
    1.9653    0.9838    0.5926 N   0  0  0  0  0  0  0  0  0  0  0  0
    5.8396   -0.5348   -0.7295 N   0  0  0  0  0  0  0  0  0  0  0  0
   -0.4187    0.5875    0.3571 C   0  0  1  0  0  0  0  0  0  0  0  0
    2.1686   -0.3221   -0.0173 C   0  0  2  0  0  0  0  0  0  0  0  0
   -1.7569    1.0534    0.9076 C   0  0  0  0  0  0  0  0  0  0  0  0
    0.7061    1.5543    0.7011 C   0  0  0  0  0  0  0  0  0  0  0  0
    1.1942   -1.2794    0.6555 C   0  0  0  0  0  0  0  0  0  0  0  0
    3.6101   -0.7816    0.1308 C   0  0  0  0  0  0  0  0  0  0  0  0
   -2.9137    0.3903    0.2065 C   0  0  0  0  0  0  0  0  0  0  0  0
    4.5288   -0.1378   -0.8861 C   0  0  0  0  0  0  0  0  0  0  0  0
   -3.4714    0.9784   -0.9287 C   0  0  0  0  0  0  0  0  0  0  0  0
   -3.4272   -0.8119    0.6928 C   0  0  0  0  0  0  0  0  0  0  0  0
   -4.5427    0.3643   -1.5777 C   0  0  0  0  0  0  0  0  0  0  0  0
   -4.4984   -1.4260    0.0440 C   0  0  0  0  0  0  0  0  0  0  0  0
   -5.0562   -0.8379   -1.0913 C   0  0  0  0  0  0  0  0  0  0  0  0
   -0.4448    0.4951   -0.7364 H   0  0  0  0  0  0  0  0  0  0  0  0
    1.8763   -0.2504   -1.0723 H   0  0  0  0  0  0  0  0  0  0  0  0
   -1.8738    2.1388    0.7907 H   0  0  0  0  0  0  0  0  0  0  0  0
   -1.8235    0.8735    1.9892 H   0  0  0  0  0  0  0  0  0  0  0  0
   -0.7611   -1.3071    1.3008 H   0  0  0  0  0  0  0  0  0  0  0  0
    2.7693    1.5865    0.7410 H   0  0  0  0  0  0  0  0  0  0  0  0
    3.6885   -1.8649   -0.0251 H   0  0  0  0  0  0  0  0  0  0  0  0
    3.9901   -0.5685    1.1379 H   0  0  0  0  0  0  0  0  0  0  0  0
   -3.0789    1.9137   -1.3189 H   0  0  0  0  0  0  0  0  0  0  0  0
   -3.0109   -1.2780    1.5815 H   0  0  0  0  0  0  0  0  0  0  0  0
   -4.9766    0.8219   -2.4619 H   0  0  0  0  0  0  0  0  0  0  0  0
   -4.8998   -2.3610    0.4239 H   0  0  0  0  0  0  0  0  0  0  0  0
   -5.8905   -1.3159   -1.5962 H   0  0  0  0  0  0  0  0  0  0  0  0
    6.1271   -1.1865   -0.0064 H   0  0  0  0  0  0  0  0  0  0  0  0
    6.5679   -0.1828   -1.3419 H   0  0  0  0  0  0  0  0  0  0  0  0
  1 10  2  0  0  0  0
  2 11  2  0  0  0  0
  3 14  2  0  0  0  0
  4  7  1  0  0  0  0
  4 11  1  0  0  0  0
  4 24  1  0  0  0  0
  5  8  1  0  0  0  0
  5 10  1  0  0  0  0
  5 25  1  0  0  0  0
  6 14  1  0  0  0  0
  6 33  1  0  0  0  0
  6 34  1  0  0  0  0
  7  9  1  0  0  0  0
  7 10  1  0  0  0  0
  7 20  1  0  0  0  0
  8 11  1  0  0  0  0
  8 12  1  0  0  0  0
  8 21  1  0  0  0  0
  9 13  1  0  0  0  0
  9 22  1  0  0  0  0
  9 23  1  0  0  0  0
 12 14  1  0  0  0  0
 12 26  1  0  0  0  0
 12 27  1  0  0  0  0
 13 15  2  0  0  0  0
 13 16  1  0  0  0  0
 15 17  1  0  0  0  0
 15 28  1  0  0  0  0
 16 18  2  0  0  0  0
 16 29  1  0  0  0  0
 17 19  2  0  0  0  0
 17 30  1  0  0  0  0
 18 19  1  0  0  0  0
 18 31  1  0  0  0  0
 19 32  1  0  0  0  0
M  END
> <PUBCHEM_COMPOUND_CID>
102261321

> <PUBCHEM_CONFORMER_RMSD>
0.6

> <PUBCHEM_CONFORMER_DIVERSEORDER>
1
102
99
80
79
73
4
50
38
24
90
63
69
30
108
3
22
81
107
59
85
35
51
88
118
47
71
67
103
92
89
86
94
11
75
60
96
18
45
12
105
62
56
68
34
48
78
16
21
20
27
82
41
6
19
101
43
37
53
61
32
55
26
65
31
95
52
8
76
100
25
91
57
28
93
113
14
40
70
9
72
116
23
74
2
84
10
17
33
77
64
106
83
29
36
114
7
112
15
13
66
97
54
98
39
5
109
42
104
87
58
110
49
46
111
44
117
115

> <PUBCHEM_MMFF94_PARTIAL_CHARGES>
28
1 -0.57
10 0.57
11 0.57
12 0.06
13 -0.14
14 0.57
15 -0.15
16 -0.15
17 -0.15
18 -0.15
19 -0.15
2 -0.57
24 0.37
25 0.37
28 0.15
29 0.15
3 -0.57
30 0.15
31 0.15
32 0.15
33 0.37
34 0.37
4 -0.73
5 -0.73
6 -0.8
7 0.36
8 0.36
9 0.14

> <PUBCHEM_EFFECTIVE_ROTOR_COUNT>
4.8

> <PUBCHEM_PHARMACOPHORE_FEATURES>
8
1 1 acceptor
1 2 acceptor
1 3 acceptor
1 4 donor
1 5 donor
1 6 donor
6 13 15 16 17 18 19 rings
6 4 5 7 8 10 11 rings

> <PUBCHEM_HEAVY_ATOM_COUNT>
19

> <PUBCHEM_ATOM_DEF_STEREO_COUNT>
2

> <PUBCHEM_ATOM_UDEF_STEREO_COUNT>
0

> <PUBCHEM_BOND_DEF_STEREO_COUNT>
0

> <PUBCHEM_BOND_UDEF_STEREO_COUNT>
0

> <PUBCHEM_ISOTOPIC_ATOM_COUNT>
0

> <PUBCHEM_COMPONENT_COUNT>
1

> <PUBCHEM_CACTVS_TAUTO_COUNT>
24

> <PUBCHEM_CONFORMER_ID>
0618624900000001

> <PUBCHEM_MMFF94_ENERGY>
58.6006

> <PUBCHEM_FEATURE_SELFOVERLAP>
40.606

> <PUBCHEM_SHAPE_FINGERPRINT>
10366900 7 18187639237293444051
11089746 13 15574712521666933668
11543360 7 17458346355332356689
11961588 58 17168705370128695576
12251169 10 10807928276075646177
12507557 5 10375868580745371895
12553582 1 18342454820832777779
12596602 18 10159690300830642590
12670546 177 18186522102760530191
12788726 201 17914614952282727009
12892183 10 12463567361694542238
13103583 49 12823300104366478727
13583140 156 16009328581595545696
13675066 3 7853569132096396873
13862211 1 18342454825201968018
14251758 9 8286213742460470928
14350574 20 18410858802214247851
14576447 43 18343577438852122135
15188451 53 14189278397220784781
15209294 21 12035450562084313484
1813 80 17060350625189060012
18222031 100 17846488231992264012
193927 3 17418102034964235061
19784866 170 9223240641073296256
19784866 240 16988554745774072301
200 152 18411700958815961635
20645477 70 18058717126586134757
20671657 53 18272366473452848441
20871999 31 18408603630645526241
212916 134 12107788561768400028
21475661 188 14491044916381601948
21637258 2 16343698799159872630
221357 26 18411411826577356453
221490 88 18267021850504143731
22182313 1 18047475813575725512
22393880 68 18337942463629940375
23379529 103 17773877691217884871
23402539 116 18130232566691096952
23402655 69 18187922833683058591
23503958 8 15410609328863480447
23559900 14 18336814403602870361
25147074 1 18121500154822050184
2838139 119 16153430562678400892
2871803 45 18411412921319230705
2916195 48 13623541181195104964
33382 64 15984833601480562158
3472631 163 15719661088217795655
351380 3 17775283872194961767
4259306 186 18131070398567037030
7970288 3 17704349987604604631

> <PUBCHEM_SHAPE_MULTIPOLES>
358.46
11.16
1.87
1.3
2.46
0.29
-0.41
-3.13
-6.18
0.08
0.67
-0.11
0.15
0.01

> <PUBCHEM_SHAPE_SELFOVERLAP>
754.743

> <PUBCHEM_SHAPE_VOLUME>
198.7

> <PUBCHEM_COORDINATE_TYPE>
2
5
10

$$$$
