10317069
  -OEChem-03102308273D

 49 50  0     1  0  0  0  0  0999 V2000
    5.6335    0.0349   -0.0673 O   0  0  0  0  0  0  0  0  0  0  0  0
    1.2158    1.3131   -0.6291 O   0  0  0  0  0  0  0  0  0  0  0  0
   -0.0079   -3.2757    0.0066 O   0  0  0  0  0  0  0  0  0  0  0  0
    4.0531   -1.6331    1.8561 O   0  0  0  0  0  0  0  0  0  0  0  0
   -0.6485   -0.8890   -2.3214 O   0  0  0  0  0  0  0  0  0  0  0  0
   -7.7965    1.6097    1.3618 O   0  0  0  0  0  0  0  0  0  0  0  0
    3.6085    0.9822    0.8389 C   0  0  0  0  0  0  0  0  0  0  0  0
    2.6358   -0.1522    0.6120 C   0  0  0  0  0  0  0  0  0  0  0  0
    4.6665    1.0667   -0.2721 C   0  0  1  0  0  0  0  0  0  0  0  0
    1.4788    0.0754   -0.1177 C   0  0  0  0  0  0  0  0  0  0  0  0
    2.9178   -1.4039    1.1382 C   0  0  0  0  0  0  0  0  0  0  0  0
    0.5827   -0.9731   -0.3260 C   0  0  0  0  0  0  0  0  0  0  0  0
    5.3646    2.4117   -0.2913 C   0  0  0  0  0  0  0  0  0  0  0  0
    0.8541   -2.2371    0.1979 C   0  0  0  0  0  0  0  0  0  0  0  0
    2.0216   -2.4524    0.9300 C   0  0  0  0  0  0  0  0  0  0  0  0
   -0.6391   -0.7494   -1.0913 C   0  0  0  0  0  0  0  0  0  0  0  0
    6.0753    2.8562    0.9568 C   0  0  0  0  0  0  0  0  0  0  0  0
    5.3535    3.1808   -1.3918 C   0  0  0  0  0  0  0  0  0  0  0  0
   -1.8739   -0.3161   -0.3566 C   0  0  0  0  0  0  0  0  0  0  0  0
   -3.0117   -0.0725   -1.0237 C   0  0  0  0  0  0  0  0  0  0  0  0
   -4.2693    0.3702   -0.3962 C   0  0  0  0  0  0  0  0  0  0  0  0
    0.1952   -4.0802   -1.1529 C   0  0  0  0  0  0  0  0  0  0  0  0
   -4.4599    0.1644    0.9604 C   0  0  0  0  0  0  0  0  0  0  0  0
   -5.2369    0.9831   -1.1757 C   0  0  0  0  0  0  0  0  0  0  0  0
   -5.6508    0.5830    1.5539 C   0  0  0  0  0  0  0  0  0  0  0  0
   -6.4277    1.4017   -0.5821 C   0  0  0  0  0  0  0  0  0  0  0  0
   -6.6347    1.2016    0.7827 C   0  0  0  0  0  0  0  0  0  0  0  0
    4.0712    0.8940    1.8300 H   0  0  0  0  0  0  0  0  0  0  0  0
    3.0434    1.9230    0.8884 H   0  0  0  0  0  0  0  0  0  0  0  0
    4.1975    0.8722   -1.2451 H   0  0  0  0  0  0  0  0  0  0  0  0
    2.2337   -3.4371    1.3394 H   0  0  0  0  0  0  0  0  0  0  0  0
    6.6091    3.8015    0.8100 H   0  0  0  0  0  0  0  0  0  0  0  0
    6.8130    2.1087    1.2652 H   0  0  0  0  0  0  0  0  0  0  0  0
    5.3649    3.0048    1.7758 H   0  0  0  0  0  0  0  0  0  0  0  0
    6.2858    0.0952   -0.7862 H   0  0  0  0  0  0  0  0  0  0  0  0
    5.8525    4.1440   -1.4135 H   0  0  0  0  0  0  0  0  0  0  0  0
    4.8446    2.8663   -2.2968 H   0  0  0  0  0  0  0  0  0  0  0  0
    0.3988    1.3065   -1.1526 H   0  0  0  0  0  0  0  0  0  0  0  0
   -1.7692   -0.1955    0.7154 H   0  0  0  0  0  0  0  0  0  0  0  0
    4.7349   -0.9805    1.6324 H   0  0  0  0  0  0  0  0  0  0  0  0
   -3.0465   -0.1858   -2.1047 H   0  0  0  0  0  0  0  0  0  0  0  0
   -0.6227   -4.8032   -1.2149 H   0  0  0  0  0  0  0  0  0  0  0  0
    1.1395   -4.6279   -1.0718 H   0  0  0  0  0  0  0  0  0  0  0  0
    0.1941   -3.4734   -2.0631 H   0  0  0  0  0  0  0  0  0  0  0  0
   -3.7322   -0.3318    1.5946 H   0  0  0  0  0  0  0  0  0  0  0  0
   -5.0898    1.1473   -2.2398 H   0  0  0  0  0  0  0  0  0  0  0  0
   -5.8089    0.4203    2.6167 H   0  0  0  0  0  0  0  0  0  0  0  0
   -7.1862    1.8827   -1.1939 H   0  0  0  0  0  0  0  0  0  0  0  0
   -8.3616    2.0160    0.6824 H   0  0  0  0  0  0  0  0  0  0  0  0
  1  9  1  0  0  0  0
  1 35  1  0  0  0  0
  2 10  1  0  0  0  0
  2 38  1  0  0  0  0
  3 14  1  0  0  0  0
  3 22  1  0  0  0  0
  4 11  1  0  0  0  0
  4 40  1  0  0  0  0
  5 16  2  0  0  0  0
  6 27  1  0  0  0  0
  6 49  1  0  0  0  0
  7  8  1  0  0  0  0
  7  9  1  0  0  0  0
  7 28  1  0  0  0  0
  7 29  1  0  0  0  0
  8 10  2  0  0  0  0
  8 11  1  0  0  0  0
  9 13  1  0  0  0  0
  9 30  1  0  0  0  0
 10 12  1  0  0  0  0
 11 15  2  0  0  0  0
 12 14  2  0  0  0  0
 12 16  1  0  0  0  0
 13 17  1  0  0  0  0
 13 18  2  0  0  0  0
 14 15  1  0  0  0  0
 15 31  1  0  0  0  0
 16 19  1  0  0  0  0
 17 32  1  0  0  0  0
 17 33  1  0  0  0  0
 17 34  1  0  0  0  0
 18 36  1  0  0  0  0
 18 37  1  0  0  0  0
 19 20  2  0  0  0  0
 19 39  1  0  0  0  0
 20 21  1  0  0  0  0
 20 41  1  0  0  0  0
 21 23  2  0  0  0  0
 21 24  1  0  0  0  0
 22 42  1  0  0  0  0
 22 43  1  0  0  0  0
 22 44  1  0  0  0  0
 23 25  1  0  0  0  0
 23 45  1  0  0  0  0
 24 26  2  0  0  0  0
 24 46  1  0  0  0  0
 25 27  2  0  0  0  0
 25 47  1  0  0  0  0
 26 27  1  0  0  0  0
 26 48  1  0  0  0  0
M  END
> <PUBCHEM_COMPOUND_CID>
10317069

> <PUBCHEM_CONFORMER_RMSD>
0.8

> <PUBCHEM_CONFORMER_DIVERSEORDER>
1
109
95
111
96
35
9
17
132
92
3
121
64
15
99
20
122
107
91
13
125
60
102
73
126
110
45
66
119
123
4
103
88
54
12
134
61
71
129
21
58
42
93
25
56
113
67
104
51
94
106
14
74
120
80
130
47
79
5
40
19
43
135
24
7
30
101
33
2
100
10
16
90
133
28
36
27
52
116
62
75
72
37
11
29
117
105
85
131
8
86
69
46
108
39
63
81
34
49
97
57
137
112
87
77
26
83
128
76
55
124
65
138
22
82
84
23
48
89
118
44
68
53
32
41
6
114
38
50
127
18
31
98
59
78
136
70
115

> <PUBCHEM_MMFF94_PARTIAL_CHARGES>
40
1 -0.68
10 0.08
11 0.08
12 0.09
13 -0.28
14 0.08
15 -0.15
16 0.47
17 0.14
18 -0.3
19 -0.14
2 -0.53
20 -0.18
21 0.03
22 0.28
23 -0.15
24 -0.15
25 -0.15
26 -0.15
27 0.08
3 -0.36
31 0.15
35 0.4
36 0.15
37 0.15
38 0.45
39 0.15
4 -0.53
40 0.45
41 0.15
45 0.15
46 0.15
47 0.15
48 0.15
49 0.45
5 -0.57
6 -0.53
7 0.14
8 -0.14
9 0.42

> <PUBCHEM_EFFECTIVE_ROTOR_COUNT>
7

> <PUBCHEM_PHARMACOPHORE_FEATURES>
9
1 1 acceptor
1 1 donor
1 2 donor
1 3 acceptor
1 4 donor
1 5 acceptor
1 6 donor
6 21 23 24 25 26 27 rings
6 8 10 11 12 14 15 rings

> <PUBCHEM_HEAVY_ATOM_COUNT>
27

> <PUBCHEM_ATOM_DEF_STEREO_COUNT>
0

> <PUBCHEM_ATOM_UDEF_STEREO_COUNT>
1

> <PUBCHEM_BOND_DEF_STEREO_COUNT>
1

> <PUBCHEM_BOND_UDEF_STEREO_COUNT>
0

> <PUBCHEM_ISOTOPIC_ATOM_COUNT>
0

> <PUBCHEM_COMPONENT_COUNT>
1

> <PUBCHEM_CACTVS_TAUTO_COUNT>
57

> <PUBCHEM_CONFORMER_ID>
009D6D0D00000001

> <PUBCHEM_MMFF94_ENERGY>
91.2125

> <PUBCHEM_FEATURE_SELFOVERLAP>
45.674

> <PUBCHEM_SHAPE_FINGERPRINT>
10 15 17385723633698240580
10670039 82 16200440126468510657
10674148 151 17917715695769625204
10693767 8 10015584978073697029
10794284 68 15506640777665833298
11796584 16 14189565347721329900
11823591 26 18340197574699821888
1200032 147 16485598454553529347
12390115 104 18269558397706269071
12596602 18 18411422821561596883
12623949 98 12252723891631092904
13540713 5 18120066594256843370
13631057 29 18129088100395651487
13782708 43 11675968496134384976
13885169 86 18336830917240797412
13955234 65 18189049803021739594
14251764 75 18336548338842217088
14341114 176 17968097482637407881
14341114 328 18272086076829245163
14747281 78 18264229010177370660
14790565 3 18336543927752490452
14840074 17 18202002127628066117
15183329 4 15338847451407524580
15238133 3 17988067976915371618
15475509 35 15719941412016443554
17980427 23 17749957785975287079
1813 80 12035730864735808931
18222031 100 9799421035687897332
19309040 13 18122916593020859892
19315092 285 8430057321563914604
1979834 28 17603589625258805348
21033650 10 15554175800739733467
21521239 73 11167940255740610557
21756936 100 18199180870620885846
21781055 127 17988927739569265602
21792964 463 17914638093630068745
221357 26 10879985849082154915
22224240 67 18040997367080516467
22393880 68 13398619555247914581
25147074 1 18046034290241274754
3178227 256 18261670360230209378
3411729 13 18333452036498584946
38570 142 18201729465301163876
397830 11 17458346351417392601
4340502 62 17167860868126666016
437795 70 15697730267164373929
5104073 3 18114170973610100338
5364581 5 17386860580814947517
59682541 52 16128389142269499052

> <PUBCHEM_SHAPE_MULTIPOLES>
520.43
17.48
3.58
1.54
17.92
2.23
-0.08
-19.39
4.67
-4.8
-0.57
0.5
0.07
-1.75

> <PUBCHEM_SHAPE_SELFOVERLAP>
1107.333

> <PUBCHEM_SHAPE_VOLUME>
289.9

> <PUBCHEM_COORDINATE_TYPE>
2
5
10

$$$$
