11024779
  -OEChem-03102307253D

 43 44  0     0  0  0  0  0  0999 V2000
    6.0745    1.8827   -0.2545 O   0  0  0  0  0  0  0  0  0  0  0  0
    4.4462   -2.5188    0.7011 O   0  0  0  0  0  0  0  0  0  0  0  0
    6.5629   -0.8070    0.1910 O   0  0  0  0  0  0  0  0  0  0  0  0
   -7.6248    1.0272   -0.0437 O   0  0  0  0  0  0  0  0  0  0  0  0
   -1.2915    2.2535    0.3970 O   0  0  0  0  0  0  0  0  0  0  0  0
   -4.8349   -3.0294    0.0890 O   0  0  0  0  0  0  0  0  0  0  0  0
   -2.8744   -2.4218   -0.8873 O   0  0  0  0  0  0  0  0  0  0  0  0
   -2.1550    0.1005    0.0342 N   0  0  0  0  0  0  0  0  0  0  0  0
    2.6756    0.6519    0.2876 C   0  0  0  0  0  0  0  0  0  0  0  0
   -3.5544    0.3195    0.0113 C   0  0  0  0  0  0  0  0  0  0  0  0
    2.9177   -0.7030    0.5127 C   0  0  0  0  0  0  0  0  0  0  0  0
    3.7390    1.5171    0.0301 C   0  0  0  0  0  0  0  0  0  0  0  0
    5.0447    1.0272   -0.0023 C   0  0  0  0  0  0  0  0  0  0  0  0
    4.2232   -1.1930    0.4805 C   0  0  0  0  0  0  0  0  0  0  0  0
    5.2868   -0.3280    0.2229 C   0  0  0  0  0  0  0  0  0  0  0  0
   -4.4245   -0.7406   -0.1844 C   0  0  0  0  0  0  0  0  0  0  0  0
    1.3143    1.1629    0.3212 C   0  0  0  0  0  0  0  0  0  0  0  0
   -4.0209    1.6120    0.1887 C   0  0  0  0  0  0  0  0  0  0  0  0
   -5.7987   -0.5019   -0.2033 C   0  0  0  0  0  0  0  0  0  0  0  0
    0.1967    0.4154    0.1764 C   0  0  0  0  0  0  0  0  0  0  0  0
   -1.1570    1.0487    0.2182 C   0  0  0  0  0  0  0  0  0  0  0  0
   -6.2841    0.7939   -0.0261 C   0  0  0  0  0  0  0  0  0  0  0  0
   -5.3950    1.8508    0.1701 C   0  0  0  0  0  0  0  0  0  0  0  0
   -3.9500   -2.1057   -0.3729 C   0  0  0  0  0  0  0  0  0  0  0  0
    6.4484    2.0622   -1.6191 C   0  0  0  0  0  0  0  0  0  0  0  0
    4.4351   -3.3762   -0.4386 C   0  0  0  0  0  0  0  0  0  0  0  0
    2.1191   -1.4046    0.7376 H   0  0  0  0  0  0  0  0  0  0  0  0
    3.5622    2.5758   -0.1475 H   0  0  0  0  0  0  0  0  0  0  0  0
    1.2234    2.2371    0.4661 H   0  0  0  0  0  0  0  0  0  0  0  0
   -1.8641   -0.8647   -0.0977 H   0  0  0  0  0  0  0  0  0  0  0  0
   -3.4075    2.4858    0.3456 H   0  0  0  0  0  0  0  0  0  0  0  0
   -6.5126   -1.3055   -0.3674 H   0  0  0  0  0  0  0  0  0  0  0  0
    0.2366   -0.6541    0.0025 H   0  0  0  0  0  0  0  0  0  0  0  0
   -5.7619    2.8644    0.3094 H   0  0  0  0  0  0  0  0  0  0  0  0
    6.5445   -1.7546    0.4097 H   0  0  0  0  0  0  0  0  0  0  0  0
    5.6160    2.4825   -2.1924 H   0  0  0  0  0  0  0  0  0  0  0  0
    6.7668    1.1124   -2.0602 H   0  0  0  0  0  0  0  0  0  0  0  0
    7.2869    2.7630   -1.6552 H   0  0  0  0  0  0  0  0  0  0  0  0
    5.1897   -3.0646   -1.1676 H   0  0  0  0  0  0  0  0  0  0  0  0
    3.4439   -3.3796   -0.9032 H   0  0  0  0  0  0  0  0  0  0  0  0
    4.6687   -4.3912   -0.1058 H   0  0  0  0  0  0  0  0  0  0  0  0
   -7.7812    1.9772    0.0943 H   0  0  0  0  0  0  0  0  0  0  0  0
   -4.5083   -3.9452   -0.0411 H   0  0  0  0  0  0  0  0  0  0  0  0
  1 13  1  0  0  0  0
  1 25  1  0  0  0  0
  2 14  1  0  0  0  0
  2 26  1  0  0  0  0
  3 15  1  0  0  0  0
  3 35  1  0  0  0  0
  4 22  1  0  0  0  0
  4 42  1  0  0  0  0
  5 21  2  0  0  0  0
  6 24  1  0  0  0  0
  6 43  1  0  0  0  0
  7 24  2  0  0  0  0
  8 10  1  0  0  0  0
  8 21  1  0  0  0  0
  8 30  1  0  0  0  0
  9 11  2  0  0  0  0
  9 12  1  0  0  0  0
  9 17  1  0  0  0  0
 10 16  2  0  0  0  0
 10 18  1  0  0  0  0
 11 14  1  0  0  0  0
 11 27  1  0  0  0  0
 12 13  2  0  0  0  0
 12 28  1  0  0  0  0
 13 15  1  0  0  0  0
 14 15  2  0  0  0  0
 16 19  1  0  0  0  0
 16 24  1  0  0  0  0
 17 20  2  0  0  0  0
 17 29  1  0  0  0  0
 18 23  2  0  0  0  0
 18 31  1  0  0  0  0
 19 22  2  0  0  0  0
 19 32  1  0  0  0  0
 20 21  1  0  0  0  0
 20 33  1  0  0  0  0
 22 23  1  0  0  0  0
 23 34  1  0  0  0  0
 25 36  1  0  0  0  0
 25 37  1  0  0  0  0
 25 38  1  0  0  0  0
 26 39  1  0  0  0  0
 26 40  1  0  0  0  0
 26 41  1  0  0  0  0
M  END
> <PUBCHEM_COMPOUND_CID>
11024779

> <PUBCHEM_CONFORMER_RMSD>
0.8

> <PUBCHEM_CONFORMER_DIVERSEORDER>
1
8
15
12
18
4
13
3
19
14
10
6
17
2
5
16
9
11
7

> <PUBCHEM_MMFF94_PARTIAL_CHARGES>
37
1 -0.36
10 0.12
11 -0.15
12 -0.15
13 0.08
14 0.08
15 0.08
16 0.09
17 -0.18
18 -0.15
19 -0.15
2 -0.36
20 -0.14
21 0.62
22 0.08
23 -0.15
24 0.63
25 0.28
26 0.28
27 0.15
28 0.15
29 0.15
3 -0.53
30 0.37
31 0.15
32 0.15
33 0.15
34 0.15
35 0.45
4 -0.53
42 0.45
43 0.5
5 -0.57
6 -0.65
7 -0.57
8 -0.55
9 0.03

> <PUBCHEM_EFFECTIVE_ROTOR_COUNT>
7

> <PUBCHEM_PHARMACOPHORE_FEATURES>
11
1 1 acceptor
1 2 acceptor
1 3 donor
1 4 donor
1 5 acceptor
1 6 acceptor
1 7 acceptor
1 8 donor
3 6 7 24 anion
6 10 16 18 19 22 23 rings
6 9 11 12 13 14 15 rings

> <PUBCHEM_HEAVY_ATOM_COUNT>
26

> <PUBCHEM_ATOM_DEF_STEREO_COUNT>
0

> <PUBCHEM_ATOM_UDEF_STEREO_COUNT>
0

> <PUBCHEM_BOND_DEF_STEREO_COUNT>
1

> <PUBCHEM_BOND_UDEF_STEREO_COUNT>
0

> <PUBCHEM_ISOTOPIC_ATOM_COUNT>
0

> <PUBCHEM_COMPONENT_COUNT>
1

> <PUBCHEM_CACTVS_TAUTO_COUNT>
16

> <PUBCHEM_CONFORMER_ID>
00A8398B00000001

> <PUBCHEM_MMFF94_ENERGY>
102.9955

> <PUBCHEM_FEATURE_SELFOVERLAP>
55.881

> <PUBCHEM_SHAPE_FINGERPRINT>
10299344 5 18411138034980705033
10462674 296 17044018758860182402
10595046 47 18409449197868342376
11315181 36 17275386534445390385
11524674 6 17060336336391497071
11796584 16 18131071545318094998
12107183 9 17836650716922983520
12236239 1 18333449858749855197
12788726 201 17632583708149613657
13167823 11 18410289224535529539
13533116 47 18341330003125876712
14251764 18 18272652359840902801
14933364 13 18408323289287292465
15001296 14 18260824865178188683
15183329 4 18412543197987509225
15250474 111 18341599460536816430
15799311 1 18341062851506460242
17844677 252 18412267237417205281
17857418 61 18341890779456600474
19427546 62 18188494696284631776
21033648 29 13829847959341342073
220451 1 18341900700868126929
23522609 53 18198650798442753560
23559900 14 18271516611305493401
255183 451 18125447398347543150
3004659 81 18336263458093253234
335352 9 18413385463409356661
4073 2 18114186375294050426
4214541 1 18412260645069257993
4325135 7 18334858325051064996
5104073 3 18272366477415188715
559249 180 18412821392068297327
59755656 520 17240199941700048795
6025842 7 18408326571501610540
6437827 68 18342173332718353403
999808 66 18041008371319563883

> <PUBCHEM_SHAPE_MULTIPOLES>
489
20.44
3.06
0.8
3.2
2.4
-0.17
-1.67
-2.41
-1.32
-0.42
-0.78
-0.1
-1.58

> <PUBCHEM_SHAPE_SELFOVERLAP>
1047.846

> <PUBCHEM_SHAPE_VOLUME>
269.9

> <PUBCHEM_COORDINATE_TYPE>
2
5
10

$$$$
