111054
  -OEChem-03112306403D

 33 34  0     1  0  0  0  0  0999 V2000
    0.6381    2.5908    1.0401 O   0  0  0  0  0  0  0  0  0  0  0  0
    1.3646   -2.6281    0.5265 O   0  0  0  0  0  0  0  0  0  0  0  0
    5.7554   -0.1148   -0.1951 O   0  0  0  0  0  0  0  0  0  0  0  0
    4.2930    0.7755   -1.6950 O   0  0  0  0  0  0  0  0  0  0  0  0
   -0.0524   -0.8308    0.7715 N   0  0  0  0  0  0  0  0  0  0  0  0
    2.0018    0.8144    0.5085 N   0  0  0  0  0  0  0  0  0  0  0  0
   -0.4014    0.5137    0.3367 C   0  0  1  0  0  0  0  0  0  0  0  0
    2.1372   -0.4469   -0.2053 C   0  0  2  0  0  0  0  0  0  0  0  0
   -1.7017    0.9788    0.9723 C   0  0  0  0  0  0  0  0  0  0  0  0
    0.7681    1.4148    0.7085 C   0  0  0  0  0  0  0  0  0  0  0  0
    1.1550   -1.4212    0.4309 C   0  0  0  0  0  0  0  0  0  0  0  0
    3.5661   -0.9625   -0.1484 C   0  0  0  0  0  0  0  0  0  0  0  0
   -2.9056    0.4091    0.2684 C   0  0  0  0  0  0  0  0  0  0  0  0
   -3.4704    1.1061   -0.7900 C   0  0  0  0  0  0  0  0  0  0  0  0
   -3.4314   -0.8042    0.6887 C   0  0  0  0  0  0  0  0  0  0  0  0
    4.5372   -0.0016   -0.7842 C   0  0  0  0  0  0  0  0  0  0  0  0
   -4.5850    0.5786   -1.4420 C   0  0  0  0  0  0  0  0  0  0  0  0
   -4.5459   -1.3316    0.0367 C   0  0  0  0  0  0  0  0  0  0  0  0
   -5.1227   -0.6402   -1.0288 C   0  0  0  0  0  0  0  0  0  0  0  0
   -0.4699    0.5059   -0.7589 H   0  0  0  0  0  0  0  0  0  0  0  0
    1.8254   -0.2773   -1.2434 H   0  0  0  0  0  0  0  0  0  0  0  0
   -1.7836    2.0733    0.9437 H   0  0  0  0  0  0  0  0  0  0  0  0
   -1.7343    0.7192    2.0393 H   0  0  0  0  0  0  0  0  0  0  0  0
   -0.7749   -1.4357    1.1481 H   0  0  0  0  0  0  0  0  0  0  0  0
    2.8290    1.3788    0.6785 H   0  0  0  0  0  0  0  0  0  0  0  0
    3.8569   -1.1180    0.8986 H   0  0  0  0  0  0  0  0  0  0  0  0
    3.6585   -1.9231   -0.6676 H   0  0  0  0  0  0  0  0  0  0  0  0
   -3.0578    2.0548   -1.1215 H   0  0  0  0  0  0  0  0  0  0  0  0
   -2.9994   -1.3484    1.5233 H   0  0  0  0  0  0  0  0  0  0  0  0
   -5.0337    1.1166   -2.2719 H   0  0  0  0  0  0  0  0  0  0  0  0
   -4.9662   -2.2795    0.3599 H   0  0  0  0  0  0  0  0  0  0  0  0
   -5.9908   -1.0507   -1.5362 H   0  0  0  0  0  0  0  0  0  0  0  0
    6.4104    0.5004   -0.5885 H   0  0  0  0  0  0  0  0  0  0  0  0
  1 10  2  0  0  0  0
  2 11  2  0  0  0  0
  3 16  1  0  0  0  0
  3 33  1  0  0  0  0
  4 16  2  0  0  0  0
  5  7  1  0  0  0  0
  5 11  1  0  0  0  0
  5 24  1  0  0  0  0
  6  8  1  0  0  0  0
  6 10  1  0  0  0  0
  6 25  1  0  0  0  0
  7  9  1  0  0  0  0
  7 10  1  0  0  0  0
  7 20  1  0  0  0  0
  8 11  1  0  0  0  0
  8 12  1  0  0  0  0
  8 21  1  0  0  0  0
  9 13  1  0  0  0  0
  9 22  1  0  0  0  0
  9 23  1  0  0  0  0
 12 16  1  0  0  0  0
 12 26  1  0  0  0  0
 12 27  1  0  0  0  0
 13 14  2  0  0  0  0
 13 15  1  0  0  0  0
 14 17  1  0  0  0  0
 14 28  1  0  0  0  0
 15 18  2  0  0  0  0
 15 29  1  0  0  0  0
 17 19  2  0  0  0  0
 17 30  1  0  0  0  0
 18 19  1  0  0  0  0
 18 31  1  0  0  0  0
 19 32  1  0  0  0  0
M  END
> <PUBCHEM_COMPOUND_CID>
111054

> <PUBCHEM_CONFORMER_RMSD>
0.6

> <PUBCHEM_CONFORMER_DIVERSEORDER>
1
40
47
43
45
23
49
51
29
15
34
46
22
48
17
62
18
11
33
38
37
16
60
59
36
21
8
32
24
53
9
39
2
50
55
42
3
10
19
63
7
25
5
41
28
31
13
27
12
56
26
54
57
6
61
52
44
14
20
58
30
35
4

> <PUBCHEM_MMFF94_PARTIAL_CHARGES>
27
1 -0.57
10 0.57
11 0.57
12 0.06
13 -0.14
14 -0.15
15 -0.15
16 0.66
17 -0.15
18 -0.15
19 -0.15
2 -0.57
24 0.37
25 0.37
28 0.15
29 0.15
3 -0.65
30 0.15
31 0.15
32 0.15
33 0.5
4 -0.57
5 -0.73
6 -0.73
7 0.36
8 0.36
9 0.14

> <PUBCHEM_EFFECTIVE_ROTOR_COUNT>
4.8

> <PUBCHEM_PHARMACOPHORE_FEATURES>
9
1 1 acceptor
1 2 acceptor
1 3 acceptor
1 4 acceptor
1 5 donor
1 6 donor
3 3 4 16 anion
6 13 14 15 17 18 19 rings
6 5 6 7 8 10 11 rings

> <PUBCHEM_HEAVY_ATOM_COUNT>
19

> <PUBCHEM_ATOM_DEF_STEREO_COUNT>
2

> <PUBCHEM_ATOM_UDEF_STEREO_COUNT>
0

> <PUBCHEM_BOND_DEF_STEREO_COUNT>
0

> <PUBCHEM_BOND_UDEF_STEREO_COUNT>
0

> <PUBCHEM_ISOTOPIC_ATOM_COUNT>
0

> <PUBCHEM_COMPONENT_COUNT>
1

> <PUBCHEM_CACTVS_TAUTO_COUNT>
4

> <PUBCHEM_CONFORMER_ID>
0001B1CE00000001

> <PUBCHEM_MMFF94_ENERGY>
56.1534

> <PUBCHEM_FEATURE_SELFOVERLAP>
45.737

> <PUBCHEM_SHAPE_FINGERPRINT>
10366900 7 18261386776418787387
11089746 13 15574711422044588076
11543360 7 17748548151569378045
11806522 49 18272933825526052632
12251169 10 10447921780936518201
12507557 5 9655574119658824143
12553582 1 18272088275704801515
12670546 177 18186802478352285093
12788726 201 17772752663595435769
13583140 156 16443361900482541000
13675066 3 10881407521114906873
13862211 1 18343018878951369914
14350574 20 18340207483611503419
14466204 15 7925640994021503007
14576447 43 18272926124607655151
15209294 21 12396300378325840420
1813 80 16845303742955783948
18222031 100 17632286869916349508
193927 3 17274831276213744197
19433438 38 18113617876596121587
19784866 170 9007067863170155176
19784866 240 16702012115707768885
200 152 18130785655494519867
20645477 70 18059844113156607061
20871999 31 18409729534894834921
21637258 2 15841268156201518014
221357 26 18412537722236802013
221490 88 18268148845638215755
22393880 68 18339349838560953439
23402539 116 17988649558025472256
23402655 69 18335416821075479157
23559900 14 18336815490240132729
2838139 119 16515692169114393868
2871803 45 18412259528013608233
33382 64 15554177990861681918
3472631 163 16081358632324670279
351380 180 16370727037001499180

> <PUBCHEM_SHAPE_MULTIPOLES>
357.57
11.16
1.86
1.19
1.88
0.06
0.3
1.66
5.32
0.2
-0.55
-0.24
-0.29
0.05

> <PUBCHEM_SHAPE_SELFOVERLAP>
754.956

> <PUBCHEM_SHAPE_VOLUME>
197.7

> <PUBCHEM_COORDINATE_TYPE>
2
5
10

$$$$
