11175902
  -OEChem-03092320433D

 56 56  0     1  0  0  0  0  0999 V2000
   -0.5873    0.4276   -2.2397 O   0  0  0  0  0  0  0  0  0  0  0  0
    1.2144    2.2013   -0.6916 O   0  0  0  0  0  0  0  0  0  0  0  0
    1.3752   -2.2077    0.9061 O   0  0  0  0  0  0  0  0  0  0  0  0
   -1.3644    1.6430    0.9235 O   0  0  0  0  0  0  0  0  0  0  0  0
    3.4289   -0.2492    1.8009 O   0  0  0  0  0  0  0  0  0  0  0  0
   -0.3568   -1.1506   -0.4335 C   0  0  1  0  0  0  0  0  0  0  0  0
   -0.4304    0.3338   -0.8337 C   0  0  1  0  0  0  0  0  0  0  0  0
    0.8930    0.8979   -0.4066 C   0  0  0  0  0  0  0  0  0  0  0  0
    0.9522   -1.2190    0.3240 C   0  0  0  0  0  0  0  0  0  0  0  0
   -1.5031   -1.6930    0.4074 C   0  0  0  0  0  0  0  0  0  0  0  0
    1.6887    0.0571    0.2633 C   0  0  0  0  0  0  0  0  0  0  0  0
   -1.5325    1.1202   -0.1775 C   0  0  0  0  0  0  0  0  0  0  0  0
    3.0022    0.3546    0.8051 C   0  0  0  0  0  0  0  0  0  0  0  0
   -2.8362    1.2123   -0.9548 C   0  0  0  0  0  0  0  0  0  0  0  0
    3.8443    1.4030    0.0769 C   0  0  0  0  0  0  0  0  0  0  0  0
   -1.3275   -3.1568    0.6900 C   0  0  0  0  0  0  0  0  0  0  0  0
    5.3572    1.1399    0.1335 C   0  0  0  0  0  0  0  0  0  0  0  0
   -1.7173   -4.1966   -0.0718 C   0  0  0  0  0  0  0  0  0  0  0  0
   -4.0032    1.4301   -0.0408 C   0  0  0  0  0  0  0  0  0  0  0  0
    6.1406    2.2218   -0.6143 C   0  0  0  0  0  0  0  0  0  0  0  0
    5.6731   -0.2332   -0.4624 C   0  0  0  0  0  0  0  0  0  0  0  0
   -2.4100   -3.9608   -1.3876 C   0  0  0  0  0  0  0  0  0  0  0  0
   -1.5102   -5.6448    0.2703 C   0  0  0  0  0  0  0  0  0  0  0  0
   -4.4870    2.6068    0.4005 C   0  0  0  0  0  0  0  0  0  0  0  0
   -3.8383    3.9023   -0.0069 C   0  0  0  0  0  0  0  0  0  0  0  0
   -5.6655    2.7602    1.3196 C   0  0  0  0  0  0  0  0  0  0  0  0
   -0.2273   -1.7655   -1.3354 H   0  0  0  0  0  0  0  0  0  0  0  0
   -2.4698   -1.5179   -0.0734 H   0  0  0  0  0  0  0  0  0  0  0  0
   -1.5517   -1.1777    1.3756 H   0  0  0  0  0  0  0  0  0  0  0  0
   -0.4098    1.3425   -2.5159 H   0  0  0  0  0  0  0  0  0  0  0  0
   -2.7484    1.9961   -1.7128 H   0  0  0  0  0  0  0  0  0  0  0  0
   -3.0124    0.2731   -1.4912 H   0  0  0  0  0  0  0  0  0  0  0  0
    3.5543    1.4357   -0.9798 H   0  0  0  0  0  0  0  0  0  0  0  0
    3.6222    2.3773    0.5277 H   0  0  0  0  0  0  0  0  0  0  0  0
   -0.8374   -3.3884    1.6348 H   0  0  0  0  0  0  0  0  0  0  0  0
    5.6825    1.1416    1.1813 H   0  0  0  0  0  0  0  0  0  0  0  0
    0.4562    2.6044   -1.1469 H   0  0  0  0  0  0  0  0  0  0  0  0
   -4.4992    0.5207    0.2956 H   0  0  0  0  0  0  0  0  0  0  0  0
    7.2183    2.0409   -0.5443 H   0  0  0  0  0  0  0  0  0  0  0  0
    5.8686    2.2492   -1.6749 H   0  0  0  0  0  0  0  0  0  0  0  0
    5.9378    3.2094   -0.1867 H   0  0  0  0  0  0  0  0  0  0  0  0
    5.2206   -1.0468    0.1117 H   0  0  0  0  0  0  0  0  0  0  0  0
    6.7545   -0.4093   -0.4679 H   0  0  0  0  0  0  0  0  0  0  0  0
    5.3181   -0.3094   -1.4961 H   0  0  0  0  0  0  0  0  0  0  0  0
   -2.4586   -2.9150   -1.6979 H   0  0  0  0  0  0  0  0  0  0  0  0
   -3.4362   -4.3408   -1.3410 H   0  0  0  0  0  0  0  0  0  0  0  0
   -1.8844   -4.4983   -2.1848 H   0  0  0  0  0  0  0  0  0  0  0  0
   -2.4720   -6.1642    0.3291 H   0  0  0  0  0  0  0  0  0  0  0  0
   -0.8933   -6.1332   -0.4908 H   0  0  0  0  0  0  0  0  0  0  0  0
   -1.0065   -5.7627    1.2354 H   0  0  0  0  0  0  0  0  0  0  0  0
   -3.6132    4.5003    0.8834 H   0  0  0  0  0  0  0  0  0  0  0  0
   -4.5223    4.4787   -0.6388 H   0  0  0  0  0  0  0  0  0  0  0  0
   -2.8973    3.7907   -0.5494 H   0  0  0  0  0  0  0  0  0  0  0  0
   -5.3637    3.2522    2.2497 H   0  0  0  0  0  0  0  0  0  0  0  0
   -6.4457    3.3612    0.8417 H   0  0  0  0  0  0  0  0  0  0  0  0
   -6.1026    1.7906    1.5804 H   0  0  0  0  0  0  0  0  0  0  0  0
  1  7  1  0  0  0  0
  1 30  1  0  0  0  0
  2  8  1  0  0  0  0
  2 37  1  0  0  0  0
  3  9  2  0  0  0  0
  4 12  2  0  0  0  0
  5 13  2  0  0  0  0
  6  7  1  0  0  0  0
  6  9  1  0  0  0  0
  6 10  1  0  0  0  0
  6 27  1  0  0  0  0
  7  8  1  0  0  0  0
  7 12  1  0  0  0  0
  8 11  2  0  0  0  0
  9 11  1  0  0  0  0
 10 16  1  0  0  0  0
 10 28  1  0  0  0  0
 10 29  1  0  0  0  0
 11 13  1  0  0  0  0
 12 14  1  0  0  0  0
 13 15  1  0  0  0  0
 14 19  1  0  0  0  0
 14 31  1  0  0  0  0
 14 32  1  0  0  0  0
 15 17  1  0  0  0  0
 15 33  1  0  0  0  0
 15 34  1  0  0  0  0
 16 18  2  0  0  0  0
 16 35  1  0  0  0  0
 17 20  1  0  0  0  0
 17 21  1  0  0  0  0
 17 36  1  0  0  0  0
 18 22  1  0  0  0  0
 18 23  1  0  0  0  0
 19 24  2  0  0  0  0
 19 38  1  0  0  0  0
 20 39  1  0  0  0  0
 20 40  1  0  0  0  0
 20 41  1  0  0  0  0
 21 42  1  0  0  0  0
 21 43  1  0  0  0  0
 21 44  1  0  0  0  0
 22 45  1  0  0  0  0
 22 46  1  0  0  0  0
 22 47  1  0  0  0  0
 23 48  1  0  0  0  0
 23 49  1  0  0  0  0
 23 50  1  0  0  0  0
 24 25  1  0  0  0  0
 24 26  1  0  0  0  0
 25 51  1  0  0  0  0
 25 52  1  0  0  0  0
 25 53  1  0  0  0  0
 26 54  1  0  0  0  0
 26 55  1  0  0  0  0
 26 56  1  0  0  0  0
M  END
> <PUBCHEM_COMPOUND_CID>
11175902

> <PUBCHEM_CONFORMER_RMSD>
1

> <PUBCHEM_CONFORMER_DIVERSEORDER>
3
34
117
88
141
103
128
95
148
78
60
151
18
44
84
145
43
110
96
4
58
68
127
144
113
56
47
87
153
115
154
140
143
69
16
139
135
29
119
57
82
99
111
97
92
50
76
89
85
72
132
122
51
22
63
23
55
80
102
19
17
125
124
107
155
83
142
37
100
32
134
21
147
106
48
35
104
39
30
61
91
101
98
138
156
31
118
114
149
59
27
38
108
120
25
26
146
94
14
49
131
42
20
79
65
77
93
24
81
136
15
157
86
52
75
66
41
116
45
28
9
130
10
133
137
67
70
54
73
129
2
33
152
112
36
109
40
62
46
74
150
11
7
126
90
123
1
105
71
64
53
12
5
6
13
121
8

> <PUBCHEM_MMFF94_PARTIAL_CHARGES>
27
1 -0.68
10 0.14
11 0.03
12 0.45
13 0.49
14 0.2
15 0.06
16 -0.29
18 -0.28
19 -0.29
2 -0.53
22 0.14
23 0.14
24 -0.28
25 0.14
26 0.14
3 -0.57
30 0.4
35 0.15
37 0.45
38 0.15
4 -0.57
5 -0.57
6 0.06
7 0.48
8 -0.06
9 0.49

> <PUBCHEM_EFFECTIVE_ROTOR_COUNT>
8.4

> <PUBCHEM_PHARMACOPHORE_FEATURES>
10
1 1 acceptor
1 1 donor
1 2 donor
1 3 acceptor
1 4 acceptor
1 5 acceptor
3 17 20 21 hydrophobe
3 18 22 23 hydrophobe
3 24 25 26 hydrophobe
5 6 7 8 9 11 rings

> <PUBCHEM_HEAVY_ATOM_COUNT>
26

> <PUBCHEM_ATOM_DEF_STEREO_COUNT>
2

> <PUBCHEM_ATOM_UDEF_STEREO_COUNT>
0

> <PUBCHEM_BOND_DEF_STEREO_COUNT>
0

> <PUBCHEM_BOND_UDEF_STEREO_COUNT>
0

> <PUBCHEM_ISOTOPIC_ATOM_COUNT>
0

> <PUBCHEM_COMPONENT_COUNT>
1

> <PUBCHEM_CACTVS_TAUTO_COUNT>
36

> <PUBCHEM_CONFORMER_ID>
00AA87DE00000003

> <PUBCHEM_MMFF94_ENERGY>
42.1388

> <PUBCHEM_FEATURE_SELFOVERLAP>
50.749

> <PUBCHEM_SHAPE_FINGERPRINT>
10411042 1 17689437508686147930
10493431 412 18334858298838194756
11115154 58 17760637462939489543
12293681 160 17774439369676292417
12390115 104 18340778082358626345
12549972 3 17774426292080709042
12788726 201 18193261104191237515
13009979 54 17755869962797640783
13140716 1 17904764728104029299
13540713 5 18114725123840020778
13757389 114 18337121119701648556
14790565 3 18265896856650732020
14866123 147 18409727400048675890
15230672 131 18336553699652941166
15927050 60 18340487776834735863
16087824 20 18337952416035276231
17980427 26 18052811451858879759
18785283 64 17976253539238027683
20739085 24 17973168322458343220
21033648 29 18342166735416998600
21120745 212 17975983377220661165
21304303 172 18125162886427851759
21756936 100 18342450444029442316
23558518 356 17972606759974543820
23559900 14 18412261732450000596
23598288 3 18198064887740880100
25147074 1 17969200366120570890
283562 15 18045774856714772498
3178227 256 17979360754797828787
38695281 34 18337391513535803021
4058900 60 18125168138655890377
5104073 3 18115013221867474080
5486654 2 18412256260187132781
59755656 520 18411417280605580348
633830 44 18128248978937402381
77188 2 17474389553069152951
7808743 9 18409447012041498016
9658208 31 18272081699962191352

> <PUBCHEM_SHAPE_MULTIPOLES>
505.72
10.69
6.03
1.22
11.48
8.87
0.17
-12.53
-1.14
-9.31
-0.22
-0.23
0.06
-1.49

> <PUBCHEM_SHAPE_SELFOVERLAP>
1030.937

> <PUBCHEM_SHAPE_VOLUME>
293.9

> <PUBCHEM_COORDINATE_TYPE>
2
5
10

$$$$
