11258152
  -OEChem-03102308383D

 55 56  0     1  0  0  0  0  0999 V2000
   -5.7954    1.8076    0.2525 O   0  0  0  0  0  0  0  0  0  0  0  0
   -4.1082    0.7306   -1.7355 O   0  0  0  0  0  0  0  0  0  0  0  0
   -0.9865    0.1719    1.6216 O   0  0  0  0  0  0  0  0  0  0  0  0
   -3.8030   -2.1981   -1.4374 O   0  0  0  0  0  0  0  0  0  0  0  0
    0.7248   -3.5396   -0.8797 O   0  0  0  0  0  0  0  0  0  0  0  0
    1.4552   -2.0659    2.0903 O   0  0  0  0  0  0  0  0  0  0  0  0
    7.3508    2.9682   -1.1964 O   0  0  0  0  0  0  0  0  0  0  0  0
   -4.4630    2.3121    0.0726 C   0  0  0  0  0  0  0  0  0  0  0  0
   -3.5916    1.1492   -0.4656 C   0  0  1  0  0  0  0  0  0  0  0  0
   -3.5441   -0.0870    0.4463 C   0  0  0  0  0  0  0  0  0  0  0  0
   -4.5552    3.4776   -0.9172 C   0  0  0  0  0  0  0  0  0  0  0  0
   -4.0043    2.8218    1.4413 C   0  0  0  0  0  0  0  0  0  0  0  0
   -2.3960   -1.0075    0.0964 C   0  0  0  0  0  0  0  0  0  0  0  0
   -1.1658   -0.8271    0.7092 C   0  0  0  0  0  0  0  0  0  0  0  0
   -2.5955   -2.0171   -0.8325 C   0  0  0  0  0  0  0  0  0  0  0  0
   -0.1085   -1.6774    0.3851 C   0  0  0  0  0  0  0  0  0  0  0  0
   -6.6526    2.8110    0.7651 C   0  0  0  0  0  0  0  0  0  0  0  0
   -1.5382   -2.8673   -1.1567 C   0  0  0  0  0  0  0  0  0  0  0  0
   -0.2948   -2.6976   -0.5479 C   0  0  0  0  0  0  0  0  0  0  0  0
    1.1927   -1.5009    1.0205 C   0  0  0  0  0  0  0  0  0  0  0  0
    2.1924   -0.5946    0.3637 C   0  0  0  0  0  0  0  0  0  0  0  0
    0.8602   -4.7286   -0.1047 C   0  0  0  0  0  0  0  0  0  0  0  0
    3.3906   -0.3818    0.9274 C   0  0  0  0  0  0  0  0  0  0  0  0
    4.4316    0.4994    0.3694 C   0  0  0  0  0  0  0  0  0  0  0  0
    4.0755    1.4720   -0.5507 C   0  0  0  0  0  0  0  0  0  0  0  0
    5.7462    0.3375    0.7755 C   0  0  0  0  0  0  0  0  0  0  0  0
    5.0613    2.3056   -1.0792 C   0  0  0  0  0  0  0  0  0  0  0  0
    6.7318    1.1711    0.2470 C   0  0  0  0  0  0  0  0  0  0  0  0
    6.3895    2.1551   -0.6804 C   0  0  0  0  0  0  0  0  0  0  0  0
   -2.5767    1.5254   -0.6439 H   0  0  0  0  0  0  0  0  0  0  0  0
   -4.4897   -0.6420    0.3930 H   0  0  0  0  0  0  0  0  0  0  0  0
   -3.4463    0.2008    1.4984 H   0  0  0  0  0  0  0  0  0  0  0  0
   -4.9412    4.4010   -0.4723 H   0  0  0  0  0  0  0  0  0  0  0  0
   -5.1956    3.2320   -1.7721 H   0  0  0  0  0  0  0  0  0  0  0  0
   -3.5594    3.7268   -1.3021 H   0  0  0  0  0  0  0  0  0  0  0  0
   -2.9135    2.9314    1.4570 H   0  0  0  0  0  0  0  0  0  0  0  0
   -4.4040    3.8115    1.6899 H   0  0  0  0  0  0  0  0  0  0  0  0
   -4.2873    2.1444    2.2545 H   0  0  0  0  0  0  0  0  0  0  0  0
   -5.0323    0.4584   -1.6022 H   0  0  0  0  0  0  0  0  0  0  0  0
   -6.7933    3.6613    0.0944 H   0  0  0  0  0  0  0  0  0  0  0  0
   -6.4028    3.1315    1.7791 H   0  0  0  0  0  0  0  0  0  0  0  0
   -7.6431    2.3487    0.8499 H   0  0  0  0  0  0  0  0  0  0  0  0
   -1.6764   -3.6638   -1.8839 H   0  0  0  0  0  0  0  0  0  0  0  0
   -0.0909    0.1461    1.9939 H   0  0  0  0  0  0  0  0  0  0  0  0
   -3.7416   -2.9497   -2.0514 H   0  0  0  0  0  0  0  0  0  0  0  0
    1.8835   -0.1494   -0.5750 H   0  0  0  0  0  0  0  0  0  0  0  0
    0.0039   -5.3891   -0.2736 H   0  0  0  0  0  0  0  0  0  0  0  0
    0.9494   -4.5003    0.9614 H   0  0  0  0  0  0  0  0  0  0  0  0
    1.7680   -5.2456   -0.4276 H   0  0  0  0  0  0  0  0  0  0  0  0
    3.6518   -0.8760    1.8601 H   0  0  0  0  0  0  0  0  0  0  0  0
    3.0528    1.6392   -0.8732 H   0  0  0  0  0  0  0  0  0  0  0  0
    6.0290   -0.4255    1.4959 H   0  0  0  0  0  0  0  0  0  0  0  0
    4.7813    3.0716   -1.7976 H   0  0  0  0  0  0  0  0  0  0  0  0
    7.7648    1.0489    0.5612 H   0  0  0  0  0  0  0  0  0  0  0  0
    6.9371    3.5884   -1.8211 H   0  0  0  0  0  0  0  0  0  0  0  0
  1  8  1  0  0  0  0
  1 17  1  0  0  0  0
  2  9  1  0  0  0  0
  2 39  1  0  0  0  0
  3 14  1  0  0  0  0
  3 44  1  0  0  0  0
  4 15  1  0  0  0  0
  4 45  1  0  0  0  0
  5 19  1  0  0  0  0
  5 22  1  0  0  0  0
  6 20  2  0  0  0  0
  7 29  1  0  0  0  0
  7 55  1  0  0  0  0
  8  9  1  0  0  0  0
  8 11  1  0  0  0  0
  8 12  1  0  0  0  0
  9 10  1  0  0  0  0
  9 30  1  0  0  0  0
 10 13  1  0  0  0  0
 10 31  1  0  0  0  0
 10 32  1  0  0  0  0
 11 33  1  0  0  0  0
 11 34  1  0  0  0  0
 11 35  1  0  0  0  0
 12 36  1  0  0  0  0
 12 37  1  0  0  0  0
 12 38  1  0  0  0  0
 13 14  2  0  0  0  0
 13 15  1  0  0  0  0
 14 16  1  0  0  0  0
 15 18  2  0  0  0  0
 16 19  2  0  0  0  0
 16 20  1  0  0  0  0
 17 40  1  0  0  0  0
 17 41  1  0  0  0  0
 17 42  1  0  0  0  0
 18 19  1  0  0  0  0
 18 43  1  0  0  0  0
 20 21  1  0  0  0  0
 21 23  2  0  0  0  0
 21 46  1  0  0  0  0
 22 47  1  0  0  0  0
 22 48  1  0  0  0  0
 22 49  1  0  0  0  0
 23 24  1  0  0  0  0
 23 50  1  0  0  0  0
 24 25  2  0  0  0  0
 24 26  1  0  0  0  0
 25 27  1  0  0  0  0
 25 51  1  0  0  0  0
 26 28  2  0  0  0  0
 26 52  1  0  0  0  0
 27 29  2  0  0  0  0
 27 53  1  0  0  0  0
 28 29  1  0  0  0  0
 28 54  1  0  0  0  0
M  END
> <PUBCHEM_COMPOUND_CID>
11258152

> <PUBCHEM_CONFORMER_RMSD>
1

> <PUBCHEM_CONFORMER_DIVERSEORDER>
15
104
59
53
113
37
18
108
30
111
90
77
96
34
84
42
6
103
95
66
112
16
75
76
98
22
33
86
85
107
72
52
82
48
20
49
81
89
99
80
7
11
55
87
100
74
70
54
58
38
92
61
25
46
12
91
57
109
67
8
110
4
41
114
64
47
24
10
94
62
44
17
3
45
63
71
93
14
28
83
35
50
1
73
106
32
88
39
13
101
102
97
105
43
79
36
29
31
9
60
56
65
27
26
69
5
68
19
40
51
21
23
78
2

> <PUBCHEM_MMFF94_PARTIAL_CHARGES>
38
1 -0.56
10 0.14
13 -0.14
14 0.08
15 0.08
16 0.09
17 0.28
18 -0.15
19 0.08
2 -0.68
20 0.47
21 -0.14
22 0.28
23 -0.18
24 0.03
25 -0.15
26 -0.15
27 -0.15
28 -0.15
29 0.08
3 -0.53
39 0.4
4 -0.53
43 0.15
44 0.45
45 0.45
46 0.15
5 -0.36
50 0.15
51 0.15
52 0.15
53 0.15
54 0.15
55 0.45
6 -0.57
7 -0.53
8 0.28
9 0.28

> <PUBCHEM_EFFECTIVE_ROTOR_COUNT>
8

> <PUBCHEM_PHARMACOPHORE_FEATURES>
11
1 1 acceptor
1 2 acceptor
1 2 donor
1 3 donor
1 4 donor
1 5 acceptor
1 6 acceptor
1 7 donor
3 8 11 12 hydrophobe
6 13 14 15 16 18 19 rings
6 24 25 26 27 28 29 rings

> <PUBCHEM_HEAVY_ATOM_COUNT>
29

> <PUBCHEM_ATOM_DEF_STEREO_COUNT>
0

> <PUBCHEM_ATOM_UDEF_STEREO_COUNT>
1

> <PUBCHEM_BOND_DEF_STEREO_COUNT>
1

> <PUBCHEM_BOND_UDEF_STEREO_COUNT>
0

> <PUBCHEM_ISOTOPIC_ATOM_COUNT>
0

> <PUBCHEM_COMPONENT_COUNT>
1

> <PUBCHEM_CACTVS_TAUTO_COUNT>
57

> <PUBCHEM_CONFORMER_ID>
00ABC9280000000F

> <PUBCHEM_MMFF94_ENERGY>
115.2331

> <PUBCHEM_FEATURE_SELFOVERLAP>
55.827

> <PUBCHEM_SHAPE_FINGERPRINT>
10369192 42 18411708703006077773
105312 117 18273215322093689998
10670039 82 18341606066069215316
12107183 9 18263632997349861690
12293681 160 17775284950105159666
12422481 6 17386001724509358284
12760667 363 9367340440746008841
12788726 201 18194666271694027619
12895836 83 18342453746785173889
12895837 130 18336272357039163436
13103583 49 11386363690816509007
13540713 5 18198602381803790231
13885169 86 18260555536632682892
14251764 75 18410294687897648688
14294032 229 18272656796347291603
14713325 29 18409730707632299811
14790565 3 18408602574152344612
14840074 17 18113902645428347909
14849402 71 18050856507026205811
14950920 106 12685090393332838596
15064981 113 17988371455505418636
15064981 194 17753904010326836846
15163728 17 18412549794788653454
15198563 99 18055625381609674863
15297060 5 18272936011722682224
15357212 105 17270618863239288433
15575132 122 18411140263883953041
16126227 98 18341898493698360401
16992828 155 18187355536865000213
17780758 139 8790622385404244334
18785283 64 18050845516452847567
20775438 99 11203141695897796769
21756936 100 18187366596864040626
23559900 14 17630032763727286823
24771750 20 18059020475367801591
2838139 119 18261104128393869460
3388396 114 17187564382653152500
3411729 13 18262520269300119963
3552219 110 17897446327550071343
38570 142 18260276218008480034
4015057 19 14764062441352075082
4058900 60 18334852810065552866
437795 70 15410898405768983377
474113 269 10953748833042114769
484985 159 9295297127547900937
5219985 13 18410573981188884254
57724786 102 18263638459577473587
6034566 193 18411705378706613449
6327066 14 18409726227812553093
636775 72 17975695306245965060
7808743 9 18412258428712899147

> <PUBCHEM_SHAPE_MULTIPOLES>
555.72
16.51
5.12
1.41
14.52
2.67
-0.11
-23.81
1.98
-2.28
1.31
-0.27
0.02
-2.76

> <PUBCHEM_SHAPE_SELFOVERLAP>
1178.142

> <PUBCHEM_SHAPE_VOLUME>
311.6

> <PUBCHEM_COORDINATE_TYPE>
2
5
10

$$$$
