11566620
  -OEChem-03102308563D

 47 48  0     1  0  0  0  0  0999 V2000
   -1.1659   -0.0969   -0.5956 O   0  0  0  0  0  0  0  0  0  0  0  0
    0.0614   -0.3838    1.3679 O   0  0  0  0  0  0  0  0  0  0  0  0
   -4.6712    0.3218    1.5031 O   0  0  0  0  0  0  0  0  0  0  0  0
   -4.7508   -0.2590   -1.3275 O   0  0  0  0  0  0  0  0  0  0  0  0
   -2.3355   -0.9657    2.7551 O   0  0  0  0  0  0  0  0  0  0  0  0
   -1.0239   -0.3411   -3.3299 O   0  0  0  0  0  0  0  0  0  0  0  0
    4.2953    0.7401   -0.5930 O   0  0  0  0  0  0  0  0  0  0  0  0
    2.2862    2.1186    1.7604 O   0  0  0  0  0  0  0  0  0  0  0  0
    2.8717   -3.8013   -0.3977 O   0  0  0  0  0  0  0  0  0  0  0  0
   -3.6508   -0.4008    0.8124 C   0  0  1  0  0  0  0  0  0  0  0  0
   -3.5788    0.1337   -0.6181 C   0  0  1  0  0  0  0  0  0  0  0  0
   -2.3179   -0.2190    1.5387 C   0  0  2  0  0  0  0  0  0  0  0  0
   -2.3441   -0.4113   -1.3401 C   0  0  1  0  0  0  0  0  0  0  0  0
   -1.1489   -0.7162    0.6885 C   0  0  1  0  0  0  0  0  0  0  0  0
   -2.1869    0.1989   -2.7293 C   0  0  0  0  0  0  0  0  0  0  0  0
    1.2283   -0.7460    0.7527 C   0  0  0  0  0  0  0  0  0  0  0  0
    2.1723    0.2129    0.3947 C   0  0  0  0  0  0  0  0  0  0  0  0
    1.4590   -2.0936    0.4883 C   0  0  0  0  0  0  0  0  0  0  0  0
    1.9275    1.6234    0.6734 C   0  0  0  0  0  0  0  0  0  0  0  0
    1.2114    2.5249   -0.3568 C   0  0  0  0  0  0  0  0  0  0  0  0
    3.3553   -0.1786   -0.2321 C   0  0  0  0  0  0  0  0  0  0  0  0
    2.6421   -2.4850   -0.1384 C   0  0  0  0  0  0  0  0  0  0  0  0
    3.5902   -1.5276   -0.4986 C   0  0  0  0  0  0  0  0  0  0  0  0
   -0.0592    3.1038    0.2579 C   0  0  0  0  0  0  0  0  0  0  0  0
    2.1332    3.6475   -0.8357 C   0  0  0  0  0  0  0  0  0  0  0  0
   -3.9558   -1.4544    0.8237 H   0  0  0  0  0  0  0  0  0  0  0  0
   -3.5597    1.2303   -0.5968 H   0  0  0  0  0  0  0  0  0  0  0  0
   -2.1790    0.8315    1.8180 H   0  0  0  0  0  0  0  0  0  0  0  0
   -2.4032   -1.5024   -1.4541 H   0  0  0  0  0  0  0  0  0  0  0  0
   -1.2167   -1.8062    0.5769 H   0  0  0  0  0  0  0  0  0  0  0  0
   -2.0614    1.2856   -2.6771 H   0  0  0  0  0  0  0  0  0  0  0  0
   -3.0432   -0.0274   -3.3709 H   0  0  0  0  0  0  0  0  0  0  0  0
   -5.5003    0.1976    1.0100 H   0  0  0  0  0  0  0  0  0  0  0  0
   -4.7721   -1.2307   -1.3579 H   0  0  0  0  0  0  0  0  0  0  0  0
   -2.4620   -1.9036    2.5316 H   0  0  0  0  0  0  0  0  0  0  0  0
   -0.2710   -0.1374   -2.7488 H   0  0  0  0  0  0  0  0  0  0  0  0
    0.7393   -2.8532    0.7810 H   0  0  0  0  0  0  0  0  0  0  0  0
    0.9335    1.9064   -1.2187 H   0  0  0  0  0  0  0  0  0  0  0  0
    4.5142   -1.8264   -0.9874 H   0  0  0  0  0  0  0  0  0  0  0  0
    0.1707    3.7745    1.0932 H   0  0  0  0  0  0  0  0  0  0  0  0
   -0.7073    2.3142    0.6450 H   0  0  0  0  0  0  0  0  0  0  0  0
   -0.6266    3.6719   -0.4865 H   0  0  0  0  0  0  0  0  0  0  0  0
    1.6192    4.2932   -1.5553 H   0  0  0  0  0  0  0  0  0  0  0  0
    2.4746    4.2687   -0.0005 H   0  0  0  0  0  0  0  0  0  0  0  0
    3.0213    3.2386   -1.3273 H   0  0  0  0  0  0  0  0  0  0  0  0
    4.0915    1.6035   -0.1999 H   0  0  0  0  0  0  0  0  0  0  0  0
    3.7365   -3.8905   -0.8339 H   0  0  0  0  0  0  0  0  0  0  0  0
  1 13  1  0  0  0  0
  1 14  1  0  0  0  0
  2 14  1  0  0  0  0
  2 16  1  0  0  0  0
  3 10  1  0  0  0  0
  3 33  1  0  0  0  0
  4 11  1  0  0  0  0
  4 34  1  0  0  0  0
  5 12  1  0  0  0  0
  5 35  1  0  0  0  0
  6 15  1  0  0  0  0
  6 36  1  0  0  0  0
  7 21  1  0  0  0  0
  7 46  1  0  0  0  0
  8 19  2  0  0  0  0
  9 22  1  0  0  0  0
  9 47  1  0  0  0  0
 10 11  1  0  0  0  0
 10 12  1  0  0  0  0
 10 26  1  0  0  0  0
 11 13  1  0  0  0  0
 11 27  1  0  0  0  0
 12 14  1  0  0  0  0
 12 28  1  0  0  0  0
 13 15  1  0  0  0  0
 13 29  1  0  0  0  0
 14 30  1  0  0  0  0
 15 31  1  0  0  0  0
 15 32  1  0  0  0  0
 16 17  1  0  0  0  0
 16 18  2  0  0  0  0
 17 19  1  0  0  0  0
 17 21  2  0  0  0  0
 18 22  1  0  0  0  0
 18 37  1  0  0  0  0
 19 20  1  0  0  0  0
 20 24  1  0  0  0  0
 20 25  1  0  0  0  0
 20 38  1  0  0  0  0
 21 23  1  0  0  0  0
 22 23  2  0  0  0  0
 23 39  1  0  0  0  0
 24 40  1  0  0  0  0
 24 41  1  0  0  0  0
 24 42  1  0  0  0  0
 25 43  1  0  0  0  0
 25 44  1  0  0  0  0
 25 45  1  0  0  0  0
M  END
> <PUBCHEM_COMPOUND_CID>
11566620

> <PUBCHEM_CONFORMER_RMSD>
0.8

> <PUBCHEM_CONFORMER_DIVERSEORDER>
1
229
200
16
175
50
93
165
74
193
82
90
188
189
205
139
80
8
140
195
170
135
107
122
235
199
173
104
203
147
121
98
192
61
180
172
132
130
237
204
24
167
194
23
211
228
174
79
117
68
231
81
86
210
21
227
129
207
236
103
87
54
37
158
118
56
159
232
145
240
22
34
92
138
186
137
58
171
136
181
36
28
144
60
97
105
48
219
116
182
44
40
76
39
179
153
154
102
148
156
217
71
128
160
151
112
73
45
123
126
168
43
197
214
25
149
212
213
157
234
12
120
46
42
85
152
198
29
67
10
225
75
209
41
78
124
239
233
18
94
2
201
6
101
161
96
169
65
119
32
155
5
166
190
216
146
178
133
202
89
220
27
184
14
55
163
17
38
3
164
127
206
230
91
95
224
70
99
47
110
100
53
131
9
84
150
4
63
142
19
238
226
7
52
83
49
191
66
26
196
62
64
77
109
208
177
183
20
33
11
134
187
72
222
223
218
88
13
115
185
15
106
69
31
221
176
114
113
51
125
215
59
162
108
143
57
111
30
141
35

> <PUBCHEM_MMFF94_PARTIAL_CHARGES>
31
1 -0.56
10 0.28
11 0.28
12 0.28
13 0.28
14 0.56
15 0.28
16 0.08
17 0.09
18 -0.15
19 0.42
2 -0.36
20 0.06
21 0.08
22 0.08
23 -0.15
3 -0.68
33 0.4
34 0.4
35 0.4
36 0.4
37 0.15
39 0.15
4 -0.68
46 0.45
47 0.45
5 -0.68
6 -0.68
7 -0.53
8 -0.57
9 -0.53

> <PUBCHEM_EFFECTIVE_ROTOR_COUNT>
6.2

> <PUBCHEM_PHARMACOPHORE_FEATURES>
16
1 1 acceptor
1 2 acceptor
1 3 acceptor
1 3 donor
1 4 acceptor
1 4 donor
1 5 acceptor
1 5 donor
1 6 acceptor
1 6 donor
1 7 donor
1 8 acceptor
1 9 donor
3 20 24 25 hydrophobe
6 1 10 11 12 13 14 rings
6 16 17 18 21 22 23 rings

> <PUBCHEM_HEAVY_ATOM_COUNT>
25

> <PUBCHEM_ATOM_DEF_STEREO_COUNT>
5

> <PUBCHEM_ATOM_UDEF_STEREO_COUNT>
0

> <PUBCHEM_BOND_DEF_STEREO_COUNT>
0

> <PUBCHEM_BOND_UDEF_STEREO_COUNT>
0

> <PUBCHEM_ISOTOPIC_ATOM_COUNT>
0

> <PUBCHEM_COMPONENT_COUNT>
1

> <PUBCHEM_CACTVS_TAUTO_COUNT>
21

> <PUBCHEM_CONFORMER_ID>
00B07E1C00000001

> <PUBCHEM_MMFF94_ENERGY>
79.6653

> <PUBCHEM_FEATURE_SELFOVERLAP>
81.263

> <PUBCHEM_SHAPE_FINGERPRINT>
10165383 225 17398425359520843360
10366900 7 17821720654851165359
104564 63 18196943171237892672
10498660 4 15936408901711609783
11640471 11 17559671930984253345
12156800 1 17331443820026702797
12236239 1 17489308559921479098
12553582 1 18342173320012715182
12670545 47 17676762180148543889
13134695 92 18410579465967648712
13140716 1 18195527215241355802
13911987 19 18262815059398141502
15210252 30 17604149212343070132
17357779 13 18335981978368193272
1813 80 17987247624802576126
18219364 16 18189898801753788480
19930381 70 18337109093987761163
20645476 183 17917712435288236335
20905425 154 12502974468267149262
21033648 29 17821729434302739577
21304303 282 16672150191419311892
21486144 27 18260543463637193915
23419403 2 16231733451492797816
23526113 38 18040710329736139530
23557571 272 16878238509916832558
23598291 2 17917717898037795413
238 59 17901632137544615116
25222932 49 14828746821629217101
3060560 45 18341888632490021038
350125 39 17834128811211635162
3524813 1 17748827444576062797
3797600 57 12180429944941082433
474 4 18268985573675762400
621550 5 17678482791044327667
6287921 2 17898586524716655447
6438718 38 17696467390928272440
81228 2 17975686200197093696
9862522 239 17322661338051494692
9981440 41 16121309653449803736

> <PUBCHEM_SHAPE_MULTIPOLES>
461.66
7.38
3.32
2.19
4.39
1.41
0.96
-1.63
0.43
-4.61
0.16
2.41
-0.1
0.64

> <PUBCHEM_SHAPE_SELFOVERLAP>
967.223

> <PUBCHEM_SHAPE_VOLUME>
259.3

> <PUBCHEM_COORDINATE_TYPE>
2
5
10

$$$$
