11902953
  -OEChem-03112307063D

 24 25  0     1  0  0  0  0  0999 V2000
    1.3013   -2.3053    0.5055 O   0  0  0  0  0  0  0  0  0  0  0  0
   -0.4066    2.7420    0.4052 O   0  0  0  0  0  0  0  0  0  0  0  0
   -0.3741   -0.7615    0.0907 N   0  0  0  0  0  0  0  0  0  0  0  0
    1.3234    1.2268    0.5523 N   0  0  0  0  0  0  0  0  0  0  0  0
   -0.7499    0.5238   -0.4778 C   0  0  1  0  0  0  0  0  0  0  0  0
   -2.2588    0.5841   -0.2690 C   0  0  0  0  0  0  0  0  0  0  0  0
   -1.5262   -1.6264    0.2798 C   0  0  0  0  0  0  0  0  0  0  0  0
   -2.6719   -0.8809   -0.3909 C   0  0  0  0  0  0  0  0  0  0  0  0
    1.9369   -0.0189    0.1042 C   0  0  1  0  0  0  0  0  0  0  0  0
    0.9369   -1.1516    0.2863 C   0  0  0  0  0  0  0  0  0  0  0  0
    0.0289    1.6059    0.2349 C   0  0  0  0  0  0  0  0  0  0  0  0
    2.4601    0.0618   -1.3212 C   0  0  0  0  0  0  0  0  0  0  0  0
   -0.4987    0.5236   -1.5435 H   0  0  0  0  0  0  0  0  0  0  0  0
   -2.7569    1.2232   -1.0041 H   0  0  0  0  0  0  0  0  0  0  0  0
   -2.5087    0.9609    0.7305 H   0  0  0  0  0  0  0  0  0  0  0  0
   -1.6884   -1.7307    1.3578 H   0  0  0  0  0  0  0  0  0  0  0  0
   -1.3456   -2.6163   -0.1490 H   0  0  0  0  0  0  0  0  0  0  0  0
   -3.6402   -1.0923    0.0708 H   0  0  0  0  0  0  0  0  0  0  0  0
   -2.7294   -1.1598   -1.4501 H   0  0  0  0  0  0  0  0  0  0  0  0
    2.7721   -0.2033    0.7898 H   0  0  0  0  0  0  0  0  0  0  0  0
    1.9214    1.9163    0.9974 H   0  0  0  0  0  0  0  0  0  0  0  0
    2.9449   -0.8777   -1.6075 H   0  0  0  0  0  0  0  0  0  0  0  0
    1.6662    0.2527   -2.0488 H   0  0  0  0  0  0  0  0  0  0  0  0
    3.1945    0.8686   -1.4173 H   0  0  0  0  0  0  0  0  0  0  0  0
  1 10  2  0  0  0  0
  2 11  2  0  0  0  0
  3  5  1  0  0  0  0
  3  7  1  0  0  0  0
  3 10  1  0  0  0  0
  4  9  1  0  0  0  0
  4 11  1  0  0  0  0
  4 21  1  0  0  0  0
  5  6  1  0  0  0  0
  5 11  1  0  0  0  0
  5 13  1  0  0  0  0
  6  8  1  0  0  0  0
  6 14  1  0  0  0  0
  6 15  1  0  0  0  0
  7  8  1  0  0  0  0
  7 16  1  0  0  0  0
  7 17  1  0  0  0  0
  8 18  1  0  0  0  0
  8 19  1  0  0  0  0
  9 10  1  0  0  0  0
  9 12  1  0  0  0  0
  9 20  1  0  0  0  0
 12 22  1  0  0  0  0
 12 23  1  0  0  0  0
 12 24  1  0  0  0  0
M  END
> <PUBCHEM_COMPOUND_CID>
11902953

> <PUBCHEM_CONFORMER_RMSD>
0.4

> <PUBCHEM_CONFORMER_DIVERSEORDER>
1

> <PUBCHEM_MMFF94_PARTIAL_CHARGES>
10
1 -0.57
10 0.57
11 0.57
2 -0.57
21 0.37
3 -0.66
4 -0.73
5 0.36
7 0.3
9 0.36

> <PUBCHEM_EFFECTIVE_ROTOR_COUNT>
1

> <PUBCHEM_PHARMACOPHORE_FEATURES>
5
1 1 acceptor
1 2 acceptor
1 4 donor
5 3 5 6 7 8 rings
6 3 4 5 9 10 11 rings

> <PUBCHEM_HEAVY_ATOM_COUNT>
12

> <PUBCHEM_ATOM_DEF_STEREO_COUNT>
2

> <PUBCHEM_ATOM_UDEF_STEREO_COUNT>
0

> <PUBCHEM_BOND_DEF_STEREO_COUNT>
0

> <PUBCHEM_BOND_UDEF_STEREO_COUNT>
0

> <PUBCHEM_ISOTOPIC_ATOM_COUNT>
0

> <PUBCHEM_COMPONENT_COUNT>
1

> <PUBCHEM_CACTVS_TAUTO_COUNT>
2

> <PUBCHEM_CONFORMER_ID>
00B59FE900000001

> <PUBCHEM_MMFF94_ENERGY>
37.9414

> <PUBCHEM_FEATURE_SELFOVERLAP>
25.467

> <PUBCHEM_SHAPE_FINGERPRINT>
10353120 184 18268732604322927876
12423570 1 17271422622685013095
12897270 3 18335703861886869358
14761567 1 18335979783454990071
16945 1 18408602560940102773
18185500 45 18410006602844677307
193761 8 18122902027942031104
20645477 70 17840297050317269295
20711985 344 17986407584859810868
21040471 1 18334569144449026111
23419403 2 15811906715709324128
23552423 10 18115307743926070563
23559900 14 18413113866783145164
241688 4 17903629683747213208
2748010 2 17614559667623102735
353137 74 18336278846591913636
4369600 1 18338802320219311236
5084963 1 17842000184547142939
66348 1 18411696578097012715

> <PUBCHEM_SHAPE_MULTIPOLES>
225.25
3.2
2.29
0.85
0.58
0.54
0.19
-0.67
0.83
-0.04
-0.6
-0.34
0
0.01

> <PUBCHEM_SHAPE_SELFOVERLAP>
471.313

> <PUBCHEM_SHAPE_VOLUME>
128

> <PUBCHEM_COORDINATE_TYPE>
2
5
10

$$$$
