122363510
  -OEChem-03102308243D

 57 58  0     0  0  0  0  0  0999 V2000
    4.8194    2.9373    0.5773 O   0  0  0  0  0  0  0  0  0  0  0  0
    0.4786   -0.1885   -1.6483 O   0  0  0  0  0  0  0  0  0  0  0  0
    4.1534   -2.1888    0.6757 O   0  0  0  0  0  0  0  0  0  0  0  0
   -0.1917   -4.0797    1.0660 O   0  0  0  0  0  0  0  0  0  0  0  0
   -1.8179   -3.0710   -1.2338 O   0  0  0  0  0  0  0  0  0  0  0  0
   -6.7531    3.5353    0.5643 O   0  0  0  0  0  0  0  0  0  0  0  0
    4.5410    2.0551   -0.5121 C   0  0  0  0  0  0  0  0  0  0  0  0
    3.5809    0.9559   -0.0139 C   0  0  0  0  0  0  0  0  0  0  0  0
    3.2489   -0.1179   -1.0597 C   0  0  0  0  0  0  0  0  0  0  0  0
    3.9458    2.8739   -1.6597 C   0  0  0  0  0  0  0  0  0  0  0  0
    5.8639    1.4204   -0.9539 C   0  0  0  0  0  0  0  0  0  0  0  0
    2.3261   -1.1708   -0.4970 C   0  0  0  0  0  0  0  0  0  0  0  0
    0.9695   -1.1566   -0.8209 C   0  0  0  0  0  0  0  0  0  0  0  0
    3.6369    3.5663    1.0440 C   0  0  0  0  0  0  0  0  0  0  0  0
    2.8311   -2.1588    0.3483 C   0  0  0  0  0  0  0  0  0  0  0  0
    0.1178   -2.1305   -0.2994 C   0  0  0  0  0  0  0  0  0  0  0  0
    1.9792   -3.1326    0.8698 C   0  0  0  0  0  0  0  0  0  0  0  0
    0.6227   -3.1184    0.5460 C   0  0  0  0  0  0  0  0  0  0  0  0
    3.9886    4.4862    2.1937 C   0  0  0  0  0  0  0  0  0  0  0  0
   -1.3010   -2.1173   -0.6366 C   0  0  0  0  0  0  0  0  0  0  0  0
   -2.1121   -0.9082   -0.2715 C   0  0  0  0  0  0  0  0  0  0  0  0
   -0.8114   -3.7949    2.3184 C   0  0  0  0  0  0  0  0  0  0  0  0
   -3.4139   -0.8415   -0.5877 C   0  0  0  0  0  0  0  0  0  0  0  0
   -4.2889    0.3055   -0.2874 C   0  0  0  0  0  0  0  0  0  0  0  0
   -3.7325    1.5574   -0.0251 C   0  0  0  0  0  0  0  0  0  0  0  0
   -5.6737    0.1390   -0.2639 C   0  0  0  0  0  0  0  0  0  0  0  0
   -4.5605    2.6427    0.2608 C   0  0  0  0  0  0  0  0  0  0  0  0
   -6.5019    1.2243    0.0222 C   0  0  0  0  0  0  0  0  0  0  0  0
   -5.9453    2.4762    0.2844 C   0  0  0  0  0  0  0  0  0  0  0  0
    2.6130    1.3761    0.2786 H   0  0  0  0  0  0  0  0  0  0  0  0
    3.9916    0.5029    0.8980 H   0  0  0  0  0  0  0  0  0  0  0  0
    4.1641   -0.6286   -1.3836 H   0  0  0  0  0  0  0  0  0  0  0  0
    2.8532    0.3276   -1.9776 H   0  0  0  0  0  0  0  0  0  0  0  0
    4.0000    2.3270   -2.6078 H   0  0  0  0  0  0  0  0  0  0  0  0
    4.4814    3.8211   -1.7915 H   0  0  0  0  0  0  0  0  0  0  0  0
    2.8873    3.1091   -1.5043 H   0  0  0  0  0  0  0  0  0  0  0  0
    5.7663    0.8197   -1.8628 H   0  0  0  0  0  0  0  0  0  0  0  0
    6.6111    2.1991   -1.1489 H   0  0  0  0  0  0  0  0  0  0  0  0
    6.2806    0.7915   -0.1589 H   0  0  0  0  0  0  0  0  0  0  0  0
    3.1608    4.1815    0.2765 H   0  0  0  0  0  0  0  0  0  0  0  0
    2.9160    2.8572    1.4540 H   0  0  0  0  0  0  0  0  0  0  0  0
    2.3665   -3.9060    1.5286 H   0  0  0  0  0  0  0  0  0  0  0  0
    4.4611    3.9252    3.0070 H   0  0  0  0  0  0  0  0  0  0  0  0
    4.7084    5.2465    1.8724 H   0  0  0  0  0  0  0  0  0  0  0  0
    3.0980    4.9879    2.5832 H   0  0  0  0  0  0  0  0  0  0  0  0
    0.9601    0.6416   -1.5001 H   0  0  0  0  0  0  0  0  0  0  0  0
    4.3169   -2.9408    1.2703 H   0  0  0  0  0  0  0  0  0  0  0  0
   -1.5941   -0.1256    0.2708 H   0  0  0  0  0  0  0  0  0  0  0  0
   -1.4510   -4.6411    2.5837 H   0  0  0  0  0  0  0  0  0  0  0  0
   -1.4318   -2.8959    2.2523 H   0  0  0  0  0  0  0  0  0  0  0  0
   -0.0544   -3.6709    3.0993 H   0  0  0  0  0  0  0  0  0  0  0  0
   -3.8957   -1.6678   -1.1048 H   0  0  0  0  0  0  0  0  0  0  0  0
   -2.6620    1.7384   -0.0525 H   0  0  0  0  0  0  0  0  0  0  0  0
   -6.1247   -0.8299   -0.4644 H   0  0  0  0  0  0  0  0  0  0  0  0
   -4.1219    3.6167    0.4602 H   0  0  0  0  0  0  0  0  0  0  0  0
   -7.5790    1.0816    0.0380 H   0  0  0  0  0  0  0  0  0  0  0  0
   -7.6796    3.2403    0.5381 H   0  0  0  0  0  0  0  0  0  0  0  0
  1  7  1  0  0  0  0
  1 14  1  0  0  0  0
  2 13  1  0  0  0  0
  2 46  1  0  0  0  0
  3 15  1  0  0  0  0
  3 47  1  0  0  0  0
  4 18  1  0  0  0  0
  4 22  1  0  0  0  0
  5 20  2  0  0  0  0
  6 29  1  0  0  0  0
  6 57  1  0  0  0  0
  7  8  1  0  0  0  0
  7 10  1  0  0  0  0
  7 11  1  0  0  0  0
  8  9  1  0  0  0  0
  8 30  1  0  0  0  0
  8 31  1  0  0  0  0
  9 12  1  0  0  0  0
  9 32  1  0  0  0  0
  9 33  1  0  0  0  0
 10 34  1  0  0  0  0
 10 35  1  0  0  0  0
 10 36  1  0  0  0  0
 11 37  1  0  0  0  0
 11 38  1  0  0  0  0
 11 39  1  0  0  0  0
 12 13  1  0  0  0  0
 12 15  2  0  0  0  0
 13 16  2  0  0  0  0
 14 19  1  0  0  0  0
 14 40  1  0  0  0  0
 14 41  1  0  0  0  0
 15 17  1  0  0  0  0
 16 18  1  0  0  0  0
 16 20  1  0  0  0  0
 17 18  2  0  0  0  0
 17 42  1  0  0  0  0
 19 43  1  0  0  0  0
 19 44  1  0  0  0  0
 19 45  1  0  0  0  0
 20 21  1  0  0  0  0
 21 23  2  0  0  0  0
 21 48  1  0  0  0  0
 22 49  1  0  0  0  0
 22 50  1  0  0  0  0
 22 51  1  0  0  0  0
 23 24  1  0  0  0  0
 23 52  1  0  0  0  0
 24 25  2  0  0  0  0
 24 26  1  0  0  0  0
 25 27  1  0  0  0  0
 25 53  1  0  0  0  0
 26 28  2  0  0  0  0
 26 54  1  0  0  0  0
 27 29  2  0  0  0  0
 27 55  1  0  0  0  0
 28 29  1  0  0  0  0
 28 56  1  0  0  0  0
M  END
> <PUBCHEM_COMPOUND_CID>
122363510

> <PUBCHEM_CONFORMER_RMSD>
1

> <PUBCHEM_CONFORMER_DIVERSEORDER>
9
33
49
97
90
81
70
53
76
60
71
67
68
57
69
94
36
54
77
6
95
26
78
100
102
101
79
87
27
5
85
50
98
83
92
47
45
20
48
58
12
25
31
80
41
89
17
39
74
72
63
61
93
28
15
56
65
16
66
11
42
99
73
43
62
19
29
8
23
82
59
35
44
84
64
10
18
40
14
91
38
75
32
55
30
51
2
96
46
21
3
52
34
7
24
13
37
88
22
1
86
4

> <PUBCHEM_MMFF94_PARTIAL_CHARGES>
35
1 -0.56
12 -0.14
13 0.08
14 0.28
15 0.08
16 0.09
17 -0.15
18 0.08
2 -0.53
20 0.47
21 -0.14
22 0.28
23 -0.18
24 0.03
25 -0.15
26 -0.15
27 -0.15
28 -0.15
29 0.08
3 -0.53
4 -0.36
42 0.15
46 0.45
47 0.45
48 0.15
5 -0.57
52 0.15
53 0.15
54 0.15
55 0.15
56 0.15
57 0.45
6 -0.53
7 0.28
9 0.14

> <PUBCHEM_EFFECTIVE_ROTOR_COUNT>
9

> <PUBCHEM_PHARMACOPHORE_FEATURES>
9
1 1 acceptor
1 2 donor
1 3 donor
1 4 acceptor
1 5 acceptor
1 6 donor
3 7 10 11 hydrophobe
6 12 13 15 16 17 18 rings
6 24 25 26 27 28 29 rings

> <PUBCHEM_HEAVY_ATOM_COUNT>
29

> <PUBCHEM_ATOM_DEF_STEREO_COUNT>
0

> <PUBCHEM_ATOM_UDEF_STEREO_COUNT>
0

> <PUBCHEM_BOND_DEF_STEREO_COUNT>
1

> <PUBCHEM_BOND_UDEF_STEREO_COUNT>
0

> <PUBCHEM_ISOTOPIC_ATOM_COUNT>
0

> <PUBCHEM_COMPONENT_COUNT>
1

> <PUBCHEM_CACTVS_TAUTO_COUNT>
292

> <PUBCHEM_CONFORMER_ID>
074B1E7600000009

> <PUBCHEM_MMFF94_ENERGY>
106.3554

> <PUBCHEM_FEATURE_SELFOVERLAP>
45.672

> <PUBCHEM_SHAPE_FINGERPRINT>
10937287 8 18410012164890973567
11331351 85 17766265489004267430
11720765 8 17773609226334702710
12107183 9 18187633740078014890
12788726 201 16960161154502891390
12925494 130 18336825398106848304
13878862 14 18117256104653696317
13944108 23 18122915226350736444
14223995 32 18341887546117146184
14251764 75 18412554197578557009
14705955 166 17610903774417841056
14739800 52 18341322387790047584
14790565 3 18413388722587511399
14849402 71 18188494562576493918
15142526 21 18333733503202184243
15475509 8 18196379113679340222
16067690 210 17542759341868146136
20739085 24 17749678380740335542
21033648 144 18187079534498855471
21049683 118 18041829709714108426
21133410 62 18337129915863177817
22122407 14 18268441127185355065
23845131 108 18186523207016271667
245318 6 18042706020782301613
2838139 119 18201997784771993524
376196 1 18343300400771833454
38570 142 18336842921853316102
50080093 196 17981343191442780209
508180 173 18340783541910711298
5104073 3 18040438776487687659
59124914 9 18410857672632554692
5951187 136 18130514063079633500
7288768 16 18114742736973497491
7808743 9 18341611551122390503
9849439 229 18337385045336212737
9981440 41 18120927571647906634

> <PUBCHEM_SHAPE_MULTIPOLES>
561.59
14.79
6.25
1.49
15.1
0.56
-0.52
20.53
0
-2.96
-3.7
-1.45
0.09
0.09

> <PUBCHEM_SHAPE_SELFOVERLAP>
1181.144

> <PUBCHEM_SHAPE_VOLUME>
317.2

> <PUBCHEM_COORDINATE_TYPE>
2
5
10

$$$$
