122363515
  -OEChem-03102308433D

 54 56  0     1  0  0  0  0  0999 V2000
   -0.0869    0.3288   -0.3812 O   0  0  0  0  0  0  0  0  0  0  0  0
   -1.6703   -3.5611   -0.5584 O   0  0  0  0  0  0  0  0  0  0  0  0
    4.3678    2.2029    0.1129 O   0  0  0  0  0  0  0  0  0  0  0  0
    3.7694   -2.4384   -0.6297 O   0  0  0  0  0  0  0  0  0  0  0  0
    2.2221    3.6790    0.1415 O   0  0  0  0  0  0  0  0  0  0  0  0
   -6.2318    1.5653   -0.2651 O   0  0  0  0  0  0  0  0  0  0  0  0
   -0.6607   -3.9132    0.3899 C   0  0  0  0  0  0  0  0  0  0  0  0
    0.2883   -2.7095    0.5587 C   0  0  0  0  0  0  0  0  0  0  0  0
    0.9455   -2.2160   -0.7438 C   0  0  0  0  0  0  0  0  0  0  0  0
    1.8305   -1.0330   -0.5097 C   0  0  0  0  0  0  0  0  0  0  0  0
    1.2798    0.2361   -0.3269 C   0  0  0  0  0  0  0  0  0  0  0  0
   -0.5986    1.4697    0.3251 C   0  0  1  0  0  0  0  0  0  0  0  0
    2.1196    1.3361   -0.1299 C   0  0  0  0  0  0  0  0  0  0  0  0
    0.0307    2.7618   -0.1921 C   0  0  0  0  0  0  0  0  0  0  0  0
   -1.3434   -4.3069    1.7017 C   0  0  0  0  0  0  0  0  0  0  0  0
    0.1181   -5.1069   -0.1729 C   0  0  0  0  0  0  0  0  0  0  0  0
    1.5254    2.6842   -0.0201 C   0  0  0  0  0  0  0  0  0  0  0  0
    3.2143   -1.2046   -0.4632 C   0  0  0  0  0  0  0  0  0  0  0  0
    3.5055    1.1663   -0.0812 C   0  0  0  0  0  0  0  0  0  0  0  0
   -2.1043    1.4948    0.1677 C   0  0  0  0  0  0  0  0  0  0  0  0
    4.0491   -0.1083   -0.2445 C   0  0  0  0  0  0  0  0  0  0  0  0
   -2.6703    1.6539   -1.0972 C   0  0  0  0  0  0  0  0  0  0  0  0
   -2.9256    1.3594    1.2871 C   0  0  0  0  0  0  0  0  0  0  0  0
   -2.4378   -2.4577   -0.1058 C   0  0  0  0  0  0  0  0  0  0  0  0
   -4.0574    1.6772   -1.2427 C   0  0  0  0  0  0  0  0  0  0  0  0
   -4.3125    1.3827    1.1417 C   0  0  0  0  0  0  0  0  0  0  0  0
   -4.8784    1.5416   -0.1233 C   0  0  0  0  0  0  0  0  0  0  0  0
    4.7118    2.5156    1.4614 C   0  0  0  0  0  0  0  0  0  0  0  0
    1.0915   -3.0069    1.2494 H   0  0  0  0  0  0  0  0  0  0  0  0
   -0.2062   -1.8812    1.0781 H   0  0  0  0  0  0  0  0  0  0  0  0
    0.1806   -1.9493   -1.4839 H   0  0  0  0  0  0  0  0  0  0  0  0
    1.5134   -3.0249   -1.2144 H   0  0  0  0  0  0  0  0  0  0  0  0
   -0.3540    1.3391    1.3897 H   0  0  0  0  0  0  0  0  0  0  0  0
   -0.3469    3.6222    0.3718 H   0  0  0  0  0  0  0  0  0  0  0  0
   -0.1570    2.9267   -1.2590 H   0  0  0  0  0  0  0  0  0  0  0  0
   -2.1975   -4.9702    1.5244 H   0  0  0  0  0  0  0  0  0  0  0  0
   -0.6397   -4.8259    2.3628 H   0  0  0  0  0  0  0  0  0  0  0  0
   -1.7062   -3.4412    2.2657 H   0  0  0  0  0  0  0  0  0  0  0  0
    0.4406   -4.9365   -1.2050 H   0  0  0  0  0  0  0  0  0  0  0  0
    0.9917   -5.3506    0.4404 H   0  0  0  0  0  0  0  0  0  0  0  0
   -0.5256   -5.9941   -0.2128 H   0  0  0  0  0  0  0  0  0  0  0  0
    5.1281   -0.2407   -0.2090 H   0  0  0  0  0  0  0  0  0  0  0  0
   -2.0484    1.7487   -1.9829 H   0  0  0  0  0  0  0  0  0  0  0  0
   -2.4997    1.2339    2.2789 H   0  0  0  0  0  0  0  0  0  0  0  0
   -3.1943   -2.2718   -0.8767 H   0  0  0  0  0  0  0  0  0  0  0  0
   -1.8705   -1.5326   -0.0288 H   0  0  0  0  0  0  0  0  0  0  0  0
   -2.9974   -2.6620    0.8096 H   0  0  0  0  0  0  0  0  0  0  0  0
    4.7369   -2.3633   -0.5654 H   0  0  0  0  0  0  0  0  0  0  0  0
   -4.4860    1.7989   -2.2339 H   0  0  0  0  0  0  0  0  0  0  0  0
   -4.9470    1.2763    2.0173 H   0  0  0  0  0  0  0  0  0  0  0  0
    5.2482    3.4684    1.4663 H   0  0  0  0  0  0  0  0  0  0  0  0
    5.3702    1.7414    1.8677 H   0  0  0  0  0  0  0  0  0  0  0  0
    3.8205    2.6112    2.0899 H   0  0  0  0  0  0  0  0  0  0  0  0
   -6.4480    1.6828   -1.2062 H   0  0  0  0  0  0  0  0  0  0  0  0
  1 11  1  0  0  0  0
  1 12  1  0  0  0  0
  2  7  1  0  0  0  0
  2 24  1  0  0  0  0
  3 19  1  0  0  0  0
  3 28  1  0  0  0  0
  4 18  1  0  0  0  0
  4 48  1  0  0  0  0
  5 17  2  0  0  0  0
  6 27  1  0  0  0  0
  6 54  1  0  0  0  0
  7  8  1  0  0  0  0
  7 15  1  0  0  0  0
  7 16  1  0  0  0  0
  8  9  1  0  0  0  0
  8 29  1  0  0  0  0
  8 30  1  0  0  0  0
  9 10  1  0  0  0  0
  9 31  1  0  0  0  0
  9 32  1  0  0  0  0
 10 11  1  0  0  0  0
 10 18  2  0  0  0  0
 11 13  2  0  0  0  0
 12 14  1  0  0  0  0
 12 20  1  0  0  0  0
 12 33  1  0  0  0  0
 13 17  1  0  0  0  0
 13 19  1  0  0  0  0
 14 17  1  0  0  0  0
 14 34  1  0  0  0  0
 14 35  1  0  0  0  0
 15 36  1  0  0  0  0
 15 37  1  0  0  0  0
 15 38  1  0  0  0  0
 16 39  1  0  0  0  0
 16 40  1  0  0  0  0
 16 41  1  0  0  0  0
 18 21  1  0  0  0  0
 19 21  2  0  0  0  0
 20 22  2  0  0  0  0
 20 23  1  0  0  0  0
 21 42  1  0  0  0  0
 22 25  1  0  0  0  0
 22 43  1  0  0  0  0
 23 26  2  0  0  0  0
 23 44  1  0  0  0  0
 24 45  1  0  0  0  0
 24 46  1  0  0  0  0
 24 47  1  0  0  0  0
 25 27  2  0  0  0  0
 25 49  1  0  0  0  0
 26 27  1  0  0  0  0
 26 50  1  0  0  0  0
 28 51  1  0  0  0  0
 28 52  1  0  0  0  0
 28 53  1  0  0  0  0
M  END
> <PUBCHEM_COMPOUND_CID>
122363515

> <PUBCHEM_CONFORMER_RMSD>
0.8

> <PUBCHEM_CONFORMER_DIVERSEORDER>
1
65
27
46
57
44
54
34
25
66
60
32
21
9
37
38
58
16
36
56
51
18
30
24
59
55
28
8
68
61
52
5
31
12
42
48
62
63
35
10
50
13
20
49
11
19
39
23
53
4
7
26
47
17
45
40
67
14
3
41
29
22
15
43
64
6
33
2

> <PUBCHEM_MMFF94_PARTIAL_CHARGES>
32
1 -0.36
10 -0.14
11 0.08
12 0.42
13 0.09
14 0.06
17 0.42
18 0.08
19 0.08
2 -0.56
20 -0.14
21 -0.15
22 -0.15
23 -0.15
24 0.28
25 -0.15
26 -0.15
27 0.08
28 0.28
3 -0.36
4 -0.53
42 0.15
43 0.15
44 0.15
48 0.45
49 0.15
5 -0.57
50 0.15
54 0.45
6 -0.53
7 0.28
9 0.14

> <PUBCHEM_EFFECTIVE_ROTOR_COUNT>
6.6

> <PUBCHEM_PHARMACOPHORE_FEATURES>
10
1 1 acceptor
1 2 acceptor
1 3 acceptor
1 4 donor
1 5 acceptor
1 6 donor
3 7 15 16 hydrophobe
6 1 11 12 13 14 17 rings
6 10 11 13 18 19 21 rings
6 20 22 23 25 26 27 rings

> <PUBCHEM_HEAVY_ATOM_COUNT>
28

> <PUBCHEM_ATOM_DEF_STEREO_COUNT>
0

> <PUBCHEM_ATOM_UDEF_STEREO_COUNT>
1

> <PUBCHEM_BOND_DEF_STEREO_COUNT>
0

> <PUBCHEM_BOND_UDEF_STEREO_COUNT>
0

> <PUBCHEM_ISOTOPIC_ATOM_COUNT>
0

> <PUBCHEM_COMPONENT_COUNT>
1

> <PUBCHEM_CACTVS_TAUTO_COUNT>
18

> <PUBCHEM_CONFORMER_ID>
074B1E7B00000001

> <PUBCHEM_MMFF94_ENERGY>
101.3524

> <PUBCHEM_FEATURE_SELFOVERLAP>
50.788

> <PUBCHEM_SHAPE_FINGERPRINT>
10074138 170 18049690170471309376
10411042 1 17402049990270971079
10688039 33 17540814331562781163
1100329 8 18338514145341973834
114674 6 18193845846628811882
11578080 2 16843871178125775194
12236239 1 17632856404757041685
12422481 6 17974324116165436819
12553582 1 16320627437241775175
12788726 201 17543348710660990768
13140716 1 18412262805237354266
13540713 4 18057051409889238444
1361 2 18409448064508575289
13692114 37 18054773238316855671
138480 1 17689717463555217383
13911987 19 18118428183995878420
14790565 3 18195262030934031060
15483637 11 18266179612187534535
17138139 8 17771593980339762431
19427546 62 18410012173570903709
19591789 44 18266465295551252150
19930381 70 18121220870758564905
20028762 73 18200307697940685959
20511986 3 17630872829924846913
21033648 29 18335970995974021301
21049683 118 18194656319805449217
21197605 99 18341621460092464399
21421861 104 17399529922024300281
21796203 349 17618534002335658947
22182313 1 17986687072231956468
22311459 1 18411983521680570644
23558518 356 17827918752152553456
23559900 14 18343020008738888656
3178227 256 18193290601825620898
3298306 158 18117276952651465847
338550 245 18263087759419101533
350125 39 17763466514778652504
463206 1 16968581781235733981
5309563 4 17762056541101787767
653340 110 18052813942871443024
7399639 24 18188199893555481853
9777508 108 18267582601196737696
9981440 41 16696071591004814768

> <PUBCHEM_SHAPE_MULTIPOLES>
541.01
8.91
6.28
1.1
5.01
8.58
0.28
-8.19
0.28
-0.34
1.09
0.41
0.09
1.42

> <PUBCHEM_SHAPE_SELFOVERLAP>
1163.136

> <PUBCHEM_SHAPE_VOLUME>
298.9

> <PUBCHEM_COORDINATE_TYPE>
2
5
10

$$$$
