122363509
  -OEChem-03102308163D

 71 73  0     1  0  0  0  0  0999 V2000
   -1.1862   -0.3979    0.2501 O   0  0  0  0  0  0  0  0  0  0  0  0
    2.8083    1.7292    1.7916 O   0  0  0  0  0  0  0  0  0  0  0  0
    2.9824   -1.4743   -1.7858 O   0  0  0  0  0  0  0  0  0  0  0  0
    0.6683   -2.5521   -2.6455 O   0  0  0  0  0  0  0  0  0  0  0  0
   -7.3940   -1.2723    0.3984 O   0  0  0  0  0  0  0  0  0  0  0  0
    3.0389    0.2958   -0.1466 C   0  0  0  0  0  0  0  0  0  0  0  0
    2.1462    0.8561    0.9444 C   0  0  0  0  0  0  0  0  0  0  0  0
    4.2945   -0.3433    0.4787 C   0  0  0  0  0  0  0  0  0  0  0  0
    3.4516    1.4224   -1.1088 C   0  0  0  0  0  0  0  0  0  0  0  0
    2.3429   -0.7869   -0.9867 C   0  0  0  0  0  0  0  0  0  0  0  0
    0.8689   -0.9776   -0.8682 C   0  0  0  0  0  0  0  0  0  0  0  0
    0.8368    0.5516    1.0693 C   0  0  0  0  0  0  0  0  0  0  0  0
    0.1881   -0.3191    0.0882 C   0  0  0  0  0  0  0  0  0  0  0  0
   -1.9053   -0.8066   -0.9188 C   0  0  1  0  0  0  0  0  0  0  0  0
   -1.3484   -2.1196   -1.4477 C   0  0  0  0  0  0  0  0  0  0  0  0
    0.1134   -1.9210   -1.7492 C   0  0  0  0  0  0  0  0  0  0  0  0
   -0.0402    1.0568    2.1914 C   0  0  0  0  0  0  0  0  0  0  0  0
    3.9121   -1.3742    1.4904 C   0  0  0  0  0  0  0  0  0  0  0  0
    2.2599    1.9625   -1.8310 C   0  0  0  0  0  0  0  0  0  0  0  0
   -3.3717   -0.9304   -0.5669 C   0  0  0  0  0  0  0  0  0  0  0  0
    4.2504   -2.6774    1.5030 C   0  0  0  0  0  0  0  0  0  0  0  0
    1.8161    3.2336   -1.8478 C   0  0  0  0  0  0  0  0  0  0  0  0
   -0.6001    2.4067    1.8806 C   0  0  0  0  0  0  0  0  0  0  0  0
   -4.3102   -0.1044   -1.1856 C   0  0  0  0  0  0  0  0  0  0  0  0
   -3.7850   -1.8713    0.3762 C   0  0  0  0  0  0  0  0  0  0  0  0
   -1.8967    2.7668    1.8214 C   0  0  0  0  0  0  0  0  0  0  0  0
    5.1231   -3.2494    0.4176 C   0  0  0  0  0  0  0  0  0  0  0  0
    3.8335   -3.6688    2.5519 C   0  0  0  0  0  0  0  0  0  0  0  0
    0.6064    3.7172   -2.5960 C   0  0  0  0  0  0  0  0  0  0  0  0
    2.5492    4.3076   -1.0891 C   0  0  0  0  0  0  0  0  0  0  0  0
   -5.6617   -0.2190   -0.8611 C   0  0  0  0  0  0  0  0  0  0  0  0
   -5.1366   -1.9860    0.7009 C   0  0  0  0  0  0  0  0  0  0  0  0
   -6.0750   -1.1599    0.0824 C   0  0  0  0  0  0  0  0  0  0  0  0
   -2.9811    1.7589    2.0960 C   0  0  0  0  0  0  0  0  0  0  0  0
   -2.3988    4.1463    1.5023 C   0  0  0  0  0  0  0  0  0  0  0  0
    4.9603   -0.7225   -0.3007 H   0  0  0  0  0  0  0  0  0  0  0  0
    4.8878    0.4219    0.9984 H   0  0  0  0  0  0  0  0  0  0  0  0
    4.0292    2.1889   -0.5843 H   0  0  0  0  0  0  0  0  0  0  0  0
    4.1339    1.0244   -1.8731 H   0  0  0  0  0  0  0  0  0  0  0  0
   -1.7819   -0.0181   -1.6755 H   0  0  0  0  0  0  0  0  0  0  0  0
   -1.8683   -2.4170   -2.3651 H   0  0  0  0  0  0  0  0  0  0  0  0
   -1.4145   -2.9366   -0.7207 H   0  0  0  0  0  0  0  0  0  0  0  0
   -0.7706    0.3029    2.4907 H   0  0  0  0  0  0  0  0  0  0  0  0
    0.5632    1.1620    3.1035 H   0  0  0  0  0  0  0  0  0  0  0  0
    3.3212   -1.0272    2.3365 H   0  0  0  0  0  0  0  0  0  0  0  0
    1.7117    1.2582   -2.4541 H   0  0  0  0  0  0  0  0  0  0  0  0
    2.1763    2.1344    2.4051 H   0  0  0  0  0  0  0  0  0  0  0  0
    0.1368    3.1867    1.6900 H   0  0  0  0  0  0  0  0  0  0  0  0
   -4.0034    0.6339   -1.9215 H   0  0  0  0  0  0  0  0  0  0  0  0
   -3.0686   -2.5153    0.8786 H   0  0  0  0  0  0  0  0  0  0  0  0
    4.8066   -4.2734    0.1862 H   0  0  0  0  0  0  0  0  0  0  0  0
    6.1635   -3.2904    0.7558 H   0  0  0  0  0  0  0  0  0  0  0  0
    5.0826   -2.7135   -0.5314 H   0  0  0  0  0  0  0  0  0  0  0  0
    3.2262   -3.1987    3.3324 H   0  0  0  0  0  0  0  0  0  0  0  0
    4.7135   -4.1086    3.0321 H   0  0  0  0  0  0  0  0  0  0  0  0
    3.2387   -4.4717    2.1047 H   0  0  0  0  0  0  0  0  0  0  0  0
    0.1272    2.9063   -3.1544 H   0  0  0  0  0  0  0  0  0  0  0  0
    0.8865    4.4968   -3.3116 H   0  0  0  0  0  0  0  0  0  0  0  0
   -0.1344    4.1261   -1.9013 H   0  0  0  0  0  0  0  0  0  0  0  0
    1.8477    5.0821   -0.7574 H   0  0  0  0  0  0  0  0  0  0  0  0
    3.0365    3.9488   -0.1798 H   0  0  0  0  0  0  0  0  0  0  0  0
    3.2942    4.7851   -1.7333 H   0  0  0  0  0  0  0  0  0  0  0  0
   -6.3880    0.4274   -1.3460 H   0  0  0  0  0  0  0  0  0  0  0  0
   -5.4454   -2.7209    1.4395 H   0  0  0  0  0  0  0  0  0  0  0  0
   -2.6606    0.7292    2.2401 H   0  0  0  0  0  0  0  0  0  0  0  0
   -3.6909    1.7512    1.2618 H   0  0  0  0  0  0  0  0  0  0  0  0
   -3.5319    2.0522    2.9967 H   0  0  0  0  0  0  0  0  0  0  0  0
   -2.9914    4.5394    2.3345 H   0  0  0  0  0  0  0  0  0  0  0  0
   -1.5738    4.8428    1.3199 H   0  0  0  0  0  0  0  0  0  0  0  0
   -3.0241    4.1267    0.6040 H   0  0  0  0  0  0  0  0  0  0  0  0
   -7.4994   -1.9712    1.0666 H   0  0  0  0  0  0  0  0  0  0  0  0
  1 13  1  0  0  0  0
  1 14  1  0  0  0  0
  2  7  1  0  0  0  0
  2 47  1  0  0  0  0
  3 10  2  0  0  0  0
  4 16  2  0  0  0  0
  5 33  1  0  0  0  0
  5 71  1  0  0  0  0
  6  7  1  0  0  0  0
  6  8  1  0  0  0  0
  6  9  1  0  0  0  0
  6 10  1  0  0  0  0
  7 12  2  0  0  0  0
  8 18  1  0  0  0  0
  8 36  1  0  0  0  0
  8 37  1  0  0  0  0
  9 19  1  0  0  0  0
  9 38  1  0  0  0  0
  9 39  1  0  0  0  0
 10 11  1  0  0  0  0
 11 13  2  0  0  0  0
 11 16  1  0  0  0  0
 12 13  1  0  0  0  0
 12 17  1  0  0  0  0
 14 15  1  0  0  0  0
 14 20  1  0  0  0  0
 14 40  1  0  0  0  0
 15 16  1  0  0  0  0
 15 41  1  0  0  0  0
 15 42  1  0  0  0  0
 17 23  1  0  0  0  0
 17 43  1  0  0  0  0
 17 44  1  0  0  0  0
 18 21  2  0  0  0  0
 18 45  1  0  0  0  0
 19 22  2  0  0  0  0
 19 46  1  0  0  0  0
 20 24  2  0  0  0  0
 20 25  1  0  0  0  0
 21 27  1  0  0  0  0
 21 28  1  0  0  0  0
 22 29  1  0  0  0  0
 22 30  1  0  0  0  0
 23 26  2  0  0  0  0
 23 48  1  0  0  0  0
 24 31  1  0  0  0  0
 24 49  1  0  0  0  0
 25 32  2  0  0  0  0
 25 50  1  0  0  0  0
 26 34  1  0  0  0  0
 26 35  1  0  0  0  0
 27 51  1  0  0  0  0
 27 52  1  0  0  0  0
 27 53  1  0  0  0  0
 28 54  1  0  0  0  0
 28 55  1  0  0  0  0
 28 56  1  0  0  0  0
 29 57  1  0  0  0  0
 29 58  1  0  0  0  0
 29 59  1  0  0  0  0
 30 60  1  0  0  0  0
 30 61  1  0  0  0  0
 30 62  1  0  0  0  0
 31 33  2  0  0  0  0
 31 63  1  0  0  0  0
 32 33  1  0  0  0  0
 32 64  1  0  0  0  0
 34 65  1  0  0  0  0
 34 66  1  0  0  0  0
 34 67  1  0  0  0  0
 35 68  1  0  0  0  0
 35 69  1  0  0  0  0
 35 70  1  0  0  0  0
M  END
> <PUBCHEM_COMPOUND_CID>
122363509

> <PUBCHEM_CONFORMER_RMSD>
1

> <PUBCHEM_CONFORMER_DIVERSEORDER>
2
36
168
134
9
139
146
188
27
34
164
89
130
186
171
67
49
47
173
52
37
108
109
184
43
189
62
179
156
121
170
149
102
124
111
127
132
160
99
59
187
125
110
152
119
38
180
155
88
77
128
145
120
15
28
181
190
177
161
73
14
66
12
154
165
178
167
135
16
74
82
87
157
136
131
31
94
182
92
83
90
13
78
105
95
51
126
169
162
53
61
133
151
98
72
46
106
123
140
142
80
148
100
41
69
101
129
45
115
65
159
96
158
150
56
138
64
175
70
55
29
144
84
44
166
7
93
174
176
137
153
117
103
107
26
11
54
32
185
85
58
104
35
6
172
4
60
63
42
24
97
25
114
76
147
163
57
183
116
33
75
39
118
23
19
112
86
22
10
113
48
50
68
3
40
91
21
141
8
143
122
1
71
5
18
20
30
79
81
17

> <PUBCHEM_MMFF94_PARTIAL_CHARGES>
44
1 -0.36
10 0.49
11 0.03
12 -0.14
13 0.08
14 0.42
15 0.06
16 0.49
17 0.28
18 -0.29
19 -0.29
2 -0.53
20 -0.14
21 -0.28
22 -0.28
23 -0.29
24 -0.15
25 -0.15
26 -0.28
27 0.14
28 0.14
29 0.14
3 -0.57
30 0.14
31 -0.15
32 -0.15
33 0.08
34 0.14
35 0.14
4 -0.57
45 0.15
46 0.15
47 0.45
48 0.15
49 0.15
5 -0.53
50 0.15
6 0.2
63 0.15
64 0.15
7 -0.06
71 0.45
8 0.14
9 0.14

> <PUBCHEM_EFFECTIVE_ROTOR_COUNT>
7.8

> <PUBCHEM_PHARMACOPHORE_FEATURES>
11
1 1 acceptor
1 2 donor
1 3 acceptor
1 4 acceptor
1 5 donor
3 21 27 28 hydrophobe
3 22 29 30 hydrophobe
3 26 34 35 hydrophobe
6 1 11 13 14 15 16 rings
6 20 24 25 31 32 33 rings
6 6 7 10 11 12 13 rings

> <PUBCHEM_HEAVY_ATOM_COUNT>
35

> <PUBCHEM_ATOM_DEF_STEREO_COUNT>
0

> <PUBCHEM_ATOM_UDEF_STEREO_COUNT>
1

> <PUBCHEM_BOND_DEF_STEREO_COUNT>
0

> <PUBCHEM_BOND_UDEF_STEREO_COUNT>
0

> <PUBCHEM_ISOTOPIC_ATOM_COUNT>
0

> <PUBCHEM_COMPONENT_COUNT>
1

> <PUBCHEM_CACTVS_TAUTO_COUNT>
18

> <PUBCHEM_CONFORMER_ID>
074B1E7500000002

> <PUBCHEM_MMFF94_ENERGY>
78.5657

> <PUBCHEM_FEATURE_SELFOVERLAP>
55.849

> <PUBCHEM_SHAPE_FINGERPRINT>
10675989 125 17982460591820716553
11578080 2 17979316869797879488
11763715 3 17752214894526902902
12166972 35 18408037416595951373
12293681 160 17695648620170830048
12422481 6 17838332982772416546
12788726 201 18272938214951071906
13009979 54 18340488867866594704
13140716 1 17630593738042776467
13782708 43 18334573599306883379
15219462 58 17390554887906493160
19319366 153 18049160269853289082
20642791 105 18198902509522131073
20764821 26 17774142639423814045
21133410 90 17986083310946361541
2132832 1 18411700945926057888
21421861 104 18129929183366109826
21814621 53 17312822685131222097
22182313 1 17059212519095659198
23559900 14 18186797006516996555
3052486 1 17917727798354767985
3493558 16 17246406869564804717
376196 1 16122170579386174816
3886686 26 17261873252534904171
4144715 1 17821729451286935927
57527573 199 17696458956087608200
70251023 43 17749385932137831744

> <PUBCHEM_SHAPE_MULTIPOLES>
690.94
11.23
5.01
2.63
14.83
3.77
-0.09
-9.51
-2.03
-3.65
-0.1
-1
0.91
-3.54

> <PUBCHEM_SHAPE_SELFOVERLAP>
1462.512

> <PUBCHEM_SHAPE_VOLUME>
385.5

> <PUBCHEM_COORDINATE_TYPE>
2
5
10

$$$$
