122363513
  -OEChem-03102308353D

 48 49  0     0  0  0  0  0  0999 V2000
   -2.1434    0.8179    1.8630 O   0  0  0  0  0  0  0  0  0  0  0  0
   -0.2071   -2.6744   -0.7850 O   0  0  0  0  0  0  0  0  0  0  0  0
   -4.7196   -1.3713   -1.5245 O   0  0  0  0  0  0  0  0  0  0  0  0
    0.1451   -0.9169    2.5085 O   0  0  0  0  0  0  0  0  0  0  0  0
    7.3144    1.2020   -1.4082 O   0  0  0  0  0  0  0  0  0  0  0  0
   -4.6292    0.6110    0.5201 C   0  0  0  0  0  0  0  0  0  0  0  0
   -3.4466   -0.2614    0.1777 C   0  0  0  0  0  0  0  0  0  0  0  0
   -4.8757    1.7341   -0.4968 C   0  0  0  0  0  0  0  0  0  0  0  0
   -2.2461   -0.1154    0.8726 C   0  0  0  0  0  0  0  0  0  0  0  0
   -1.1536   -0.9224    0.5544 C   0  0  0  0  0  0  0  0  0  0  0  0
   -3.5549   -1.2143   -0.8352 C   0  0  0  0  0  0  0  0  0  0  0  0
   -1.2617   -1.8752   -0.4585 C   0  0  0  0  0  0  0  0  0  0  0  0
   -3.7602    2.7515   -0.5805 C   0  0  0  0  0  0  0  0  0  0  0  0
   -2.4624   -2.0211   -1.1532 C   0  0  0  0  0  0  0  0  0  0  0  0
    0.1028   -0.7713    1.2796 C   0  0  0  0  0  0  0  0  0  0  0  0
   -3.8240    3.9165    0.3646 C   0  0  0  0  0  0  0  0  0  0  0  0
    1.3356   -0.4038    0.5062 C   0  0  0  0  0  0  0  0  0  0  0  0
   -2.7730    2.6363   -1.4824 C   0  0  0  0  0  0  0  0  0  0  0  0
    2.5063   -0.2267    1.1362 C   0  0  0  0  0  0  0  0  0  0  0  0
    3.7655    0.1490    0.4694 C   0  0  0  0  0  0  0  0  0  0  0  0
   -0.0949   -3.9143   -0.0892 C   0  0  0  0  0  0  0  0  0  0  0  0
    3.9164   -0.0553   -0.9022 C   0  0  0  0  0  0  0  0  0  0  0  0
    4.8072    0.7077    1.2100 C   0  0  0  0  0  0  0  0  0  0  0  0
    5.1087    0.2988   -1.5332 C   0  0  0  0  0  0  0  0  0  0  0  0
    5.9997    1.0618    0.5791 C   0  0  0  0  0  0  0  0  0  0  0  0
    6.1505    0.8573   -0.7924 C   0  0  0  0  0  0  0  0  0  0  0  0
   -5.5257   -0.0208    0.5772 H   0  0  0  0  0  0  0  0  0  0  0  0
   -4.5293    1.0374    1.5257 H   0  0  0  0  0  0  0  0  0  0  0  0
   -5.0522    1.3046   -1.4916 H   0  0  0  0  0  0  0  0  0  0  0  0
   -5.8088    2.2506   -0.2377 H   0  0  0  0  0  0  0  0  0  0  0  0
   -2.5397   -2.7653   -1.9422 H   0  0  0  0  0  0  0  0  0  0  0  0
   -4.7453    4.4857    0.2044 H   0  0  0  0  0  0  0  0  0  0  0  0
   -2.9807    4.6025    0.2326 H   0  0  0  0  0  0  0  0  0  0  0  0
   -3.8077    3.5654    1.4013 H   0  0  0  0  0  0  0  0  0  0  0  0
   -1.2511    0.8213    2.2442 H   0  0  0  0  0  0  0  0  0  0  0  0
    1.2101   -0.2566   -0.5603 H   0  0  0  0  0  0  0  0  0  0  0  0
   -2.7358    1.8028   -2.1759 H   0  0  0  0  0  0  0  0  0  0  0  0
   -1.9794    3.3730   -1.5490 H   0  0  0  0  0  0  0  0  0  0  0  0
   -4.6051   -2.0747   -2.1863 H   0  0  0  0  0  0  0  0  0  0  0  0
    2.5729   -0.3517    2.2143 H   0  0  0  0  0  0  0  0  0  0  0  0
    0.8117   -4.4190   -0.4340 H   0  0  0  0  0  0  0  0  0  0  0  0
   -0.9559   -4.5538   -0.3078 H   0  0  0  0  0  0  0  0  0  0  0  0
   -0.0142   -3.7503    0.9899 H   0  0  0  0  0  0  0  0  0  0  0  0
    3.1411   -0.5059   -1.5149 H   0  0  0  0  0  0  0  0  0  0  0  0
    4.7069    0.8751    2.2796 H   0  0  0  0  0  0  0  0  0  0  0  0
    5.2227    0.1331   -2.6011 H   0  0  0  0  0  0  0  0  0  0  0  0
    6.8038    1.4962    1.1671 H   0  0  0  0  0  0  0  0  0  0  0  0
    7.9232    1.5725   -0.7463 H   0  0  0  0  0  0  0  0  0  0  0  0
  1  9  1  0  0  0  0
  1 35  1  0  0  0  0
  2 12  1  0  0  0  0
  2 21  1  0  0  0  0
  3 11  1  0  0  0  0
  3 39  1  0  0  0  0
  4 15  2  0  0  0  0
  5 26  1  0  0  0  0
  5 48  1  0  0  0  0
  6  7  1  0  0  0  0
  6  8  1  0  0  0  0
  6 27  1  0  0  0  0
  6 28  1  0  0  0  0
  7  9  1  0  0  0  0
  7 11  2  0  0  0  0
  8 13  1  0  0  0  0
  8 29  1  0  0  0  0
  8 30  1  0  0  0  0
  9 10  2  0  0  0  0
 10 12  1  0  0  0  0
 10 15  1  0  0  0  0
 11 14  1  0  0  0  0
 12 14  2  0  0  0  0
 13 16  1  0  0  0  0
 13 18  2  0  0  0  0
 14 31  1  0  0  0  0
 15 17  1  0  0  0  0
 16 32  1  0  0  0  0
 16 33  1  0  0  0  0
 16 34  1  0  0  0  0
 17 19  2  0  0  0  0
 17 36  1  0  0  0  0
 18 37  1  0  0  0  0
 18 38  1  0  0  0  0
 19 20  1  0  0  0  0
 19 40  1  0  0  0  0
 20 22  2  0  0  0  0
 20 23  1  0  0  0  0
 21 41  1  0  0  0  0
 21 42  1  0  0  0  0
 21 43  1  0  0  0  0
 22 24  1  0  0  0  0
 22 44  1  0  0  0  0
 23 25  2  0  0  0  0
 23 45  1  0  0  0  0
 24 26  2  0  0  0  0
 24 46  1  0  0  0  0
 25 26  1  0  0  0  0
 25 47  1  0  0  0  0
M  END
> <PUBCHEM_COMPOUND_CID>
122363513

> <PUBCHEM_CONFORMER_RMSD>
0.8

> <PUBCHEM_CONFORMER_DIVERSEORDER>
1
38
98
37
89
35
94
67
80
84
105
70
45
87
71
76
100
99
11
57
79
107
20
30
13
74
104
102
91
48
101
109
103
59
106
14
68
62
42
46
82
56
51
16
2
108
41
50
86
97
69
92
60
22
78
83
81
44
34
54
110
15
36
93
64
88
32
75
23
4
10
90
31
73
33
85
47
18
43
49
95
8
5
19
55
24
66
27
96
7
65
29
72
17
21
6
39
58
77
9
52
53
40
63
26
12
3
25
28
61

> <PUBCHEM_MMFF94_PARTIAL_CHARGES>
38
1 -0.53
10 0.09
11 0.08
12 0.08
13 -0.28
14 -0.15
15 0.47
16 0.14
17 -0.14
18 -0.3
19 -0.18
2 -0.36
20 0.03
21 0.28
22 -0.15
23 -0.15
24 -0.15
25 -0.15
26 0.08
3 -0.53
31 0.15
35 0.45
36 0.15
37 0.15
38 0.15
39 0.45
4 -0.57
40 0.15
44 0.15
45 0.15
46 0.15
47 0.15
48 0.45
5 -0.53
6 0.14
7 -0.14
8 0.14
9 0.08

> <PUBCHEM_EFFECTIVE_ROTOR_COUNT>
7

> <PUBCHEM_PHARMACOPHORE_FEATURES>
7
1 1 donor
1 2 acceptor
1 3 donor
1 4 acceptor
1 5 donor
6 20 22 23 24 25 26 rings
6 7 9 10 11 12 14 rings

> <PUBCHEM_HEAVY_ATOM_COUNT>
26

> <PUBCHEM_ATOM_DEF_STEREO_COUNT>
0

> <PUBCHEM_ATOM_UDEF_STEREO_COUNT>
0

> <PUBCHEM_BOND_DEF_STEREO_COUNT>
1

> <PUBCHEM_BOND_UDEF_STEREO_COUNT>
0

> <PUBCHEM_ISOTOPIC_ATOM_COUNT>
0

> <PUBCHEM_COMPONENT_COUNT>
1

> <PUBCHEM_CACTVS_TAUTO_COUNT>
419

> <PUBCHEM_CONFORMER_ID>
074B1E7900000001

> <PUBCHEM_MMFF94_ENERGY>
84.3575

> <PUBCHEM_FEATURE_SELFOVERLAP>
35.522

> <PUBCHEM_SHAPE_FINGERPRINT>
10 15 12829487087004063564
10165383 225 18059582365233524145
105312 117 18342173349676248126
10577160 183 18340205177636448498
10670039 82 18409726270503341060
107951 10 18342461468994720454
10871710 139 18334007281613155701
11315181 36 16916799526134571402
11578080 2 18127702530633135533
12596602 18 16153428337490410385
12633257 1 15502669195046197710
14251757 5 18340491170216855060
14341114 176 13695861537628052090
14713325 29 18408609188528802155
14844126 61 10665232566238788417
15163728 17 18265619792557747327
15183329 4 17775291538869742962
15188451 53 9439399103771721240
15463212 79 18337098042641932563
15575132 122 18333725802220158653
17980427 23 17676494929745179485
19958102 18 18201995543031531078
200 152 14548747226530887234
20101258 96 18120939666396871587
21033650 10 18411985767151563616
21756936 100 17967818270965921018
22122407 14 17458641037587451004
22393880 68 17989483052601692786
23198884 109 18410294752649134470
23559900 14 17060053796278857530
255183 451 17480285104822776087
2838139 119 18334853922751641616
312425 54 7853309643484776540
4015057 19 16271642399286533242
445580 204 18186522120737373932
46194498 28 17701810206017570632
5104073 3 12468895595428094044
5283173 99 18273212010937791624
53794403 172 17256242640862760517
57527293 21 18191867813528003089
57527585 21 17980455907909902149
59755656 520 17203063910665343155
633830 44 17750231426541448050
6608658 132 18260258664039558237
7237137 82 18273206517600416039
7808743 9 18338790114207475889

> <PUBCHEM_SHAPE_MULTIPOLES>
505.72
14.37
3.46
1.66
22.47
0.13
0.3
10.48
-4.71
-5.01
-0.88
0.53
-0.01
-0.73

> <PUBCHEM_SHAPE_SELFOVERLAP>
1074.107

> <PUBCHEM_SHAPE_VOLUME>
282.1

> <PUBCHEM_COORDINATE_TYPE>
2
5
10

$$$$
