122363508
  -OEChem-03102308143D

 61 62  0     0  0  0  0  0  0999 V2000
    2.1718    0.2060   -1.8536 O   0  0  0  0  0  0  0  0  0  0  0  0
    3.8491    0.2041    2.6104 O   0  0  0  0  0  0  0  0  0  0  0  0
   -0.5715   -1.0801    1.8247 O   0  0  0  0  0  0  0  0  0  0  0  0
   -0.2405    0.4630   -2.1507 O   0  0  0  0  0  0  0  0  0  0  0  0
   -8.1152   -0.7988    0.6612 O   0  0  0  0  0  0  0  0  0  0  0  0
    3.1494    0.5539    0.3230 C   0  0  0  0  0  0  0  0  0  0  0  0
    3.2846    2.0833    0.3219 C   0  0  0  0  0  0  0  0  0  0  0  0
    4.4457   -0.0871   -0.1993 C   0  0  0  0  0  0  0  0  0  0  0  0
    2.0104    0.1941   -0.6325 C   0  0  0  0  0  0  0  0  0  0  0  0
    2.9548    0.1047    1.7687 C   0  0  0  0  0  0  0  0  0  0  0  0
    0.6719   -0.1149   -0.0338 C   0  0  0  0  0  0  0  0  0  0  0  0
    1.6485   -0.4457    2.1911 C   0  0  0  0  0  0  0  0  0  0  0  0
    2.0148    2.7293    0.7781 C   0  0  0  0  0  0  0  0  0  0  0  0
    4.4054   -1.5726   -0.0343 C   0  0  0  0  0  0  0  0  0  0  0  0
    0.6114   -0.5324    1.3536 C   0  0  0  0  0  0  0  0  0  0  0  0
    1.2148    3.5554    0.0776 C   0  0  0  0  0  0  0  0  0  0  0  0
    4.5341   -2.5095   -0.9929 C   0  0  0  0  0  0  0  0  0  0  0  0
   -0.3883    0.0645   -0.8386 C   0  0  0  0  0  0  0  0  0  0  0  0
    1.5512    3.9188   -1.3442 C   0  0  0  0  0  0  0  0  0  0  0  0
   -0.0530    4.1748    0.5936 C   0  0  0  0  0  0  0  0  0  0  0  0
    4.7601   -2.1083   -2.4263 C   0  0  0  0  0  0  0  0  0  0  0  0
    4.4845   -3.9935   -0.7636 C   0  0  0  0  0  0  0  0  0  0  0  0
   -1.7486   -0.1486   -0.3856 C   0  0  0  0  0  0  0  0  0  0  0  0
   -0.5877   -2.4759    1.6150 C   0  0  0  0  0  0  0  0  0  0  0  0
   -2.8490    0.0134   -1.1397 C   0  0  0  0  0  0  0  0  0  0  0  0
   -4.2288   -0.1981   -0.6670 C   0  0  0  0  0  0  0  0  0  0  0  0
   -4.4660   -0.9736    0.4678 C   0  0  0  0  0  0  0  0  0  0  0  0
   -5.2976    0.3759   -1.3554 C   0  0  0  0  0  0  0  0  0  0  0  0
   -5.7720   -1.1752    0.9143 C   0  0  0  0  0  0  0  0  0  0  0  0
   -6.6036    0.1743   -0.9090 C   0  0  0  0  0  0  0  0  0  0  0  0
   -6.8408   -0.6012    0.2258 C   0  0  0  0  0  0  0  0  0  0  0  0
    4.0858    2.4001    1.0027 H   0  0  0  0  0  0  0  0  0  0  0  0
    3.5894    2.4179   -0.6738 H   0  0  0  0  0  0  0  0  0  0  0  0
    4.6573    0.2405   -1.2197 H   0  0  0  0  0  0  0  0  0  0  0  0
    5.2992    0.2737    0.3920 H   0  0  0  0  0  0  0  0  0  0  0  0
    1.5663   -0.7751    3.2220 H   0  0  0  0  0  0  0  0  0  0  0  0
    1.7291    2.5338    1.8105 H   0  0  0  0  0  0  0  0  0  0  0  0
    4.2917   -1.9445    0.9824 H   0  0  0  0  0  0  0  0  0  0  0  0
    1.1108    4.8886   -1.6038 H   0  0  0  0  0  0  0  0  0  0  0  0
    2.6240    4.0298   -1.5200 H   0  0  0  0  0  0  0  0  0  0  0  0
    1.1439    3.1752   -2.0355 H   0  0  0  0  0  0  0  0  0  0  0  0
   -0.2702    3.8531    1.6175 H   0  0  0  0  0  0  0  0  0  0  0  0
   -0.9013    3.8835   -0.0342 H   0  0  0  0  0  0  0  0  0  0  0  0
    0.0262    5.2665    0.5951 H   0  0  0  0  0  0  0  0  0  0  0  0
    4.1932   -2.7716   -3.0903 H   0  0  0  0  0  0  0  0  0  0  0  0
    4.4368   -1.0988   -2.6808 H   0  0  0  0  0  0  0  0  0  0  0  0
    5.8205   -2.2094   -2.6796 H   0  0  0  0  0  0  0  0  0  0  0  0
    5.4172   -4.4617   -1.0939 H   0  0  0  0  0  0  0  0  0  0  0  0
    4.3463   -4.2336    0.2957 H   0  0  0  0  0  0  0  0  0  0  0  0
    3.6521   -4.4387   -1.3180 H   0  0  0  0  0  0  0  0  0  0  0  0
   -1.9669   -0.2543    0.6596 H   0  0  0  0  0  0  0  0  0  0  0  0
   -1.5563   -2.8593    1.9502 H   0  0  0  0  0  0  0  0  0  0  0  0
    0.1887   -2.9743    2.2064 H   0  0  0  0  0  0  0  0  0  0  0  0
   -0.4727   -2.7383    0.5574 H   0  0  0  0  0  0  0  0  0  0  0  0
    0.6413    0.8271   -2.3128 H   0  0  0  0  0  0  0  0  0  0  0  0
   -2.7590    0.2606   -2.1951 H   0  0  0  0  0  0  0  0  0  0  0  0
   -3.6708   -1.4637    1.0214 H   0  0  0  0  0  0  0  0  0  0  0  0
   -5.1308    0.9842   -2.2411 H   0  0  0  0  0  0  0  0  0  0  0  0
   -5.9516   -1.7853    1.7954 H   0  0  0  0  0  0  0  0  0  0  0  0
   -7.4276    0.6270   -1.4541 H   0  0  0  0  0  0  0  0  0  0  0  0
   -8.7270   -0.3305    0.0676 H   0  0  0  0  0  0  0  0  0  0  0  0
  1  9  2  0  0  0  0
  2 10  2  0  0  0  0
  3 15  1  0  0  0  0
  3 24  1  0  0  0  0
  4 18  1  0  0  0  0
  4 55  1  0  0  0  0
  5 31  1  0  0  0  0
  5 61  1  0  0  0  0
  6  7  1  0  0  0  0
  6  8  1  0  0  0  0
  6  9  1  0  0  0  0
  6 10  1  0  0  0  0
  7 13  1  0  0  0  0
  7 32  1  0  0  0  0
  7 33  1  0  0  0  0
  8 14  1  0  0  0  0
  8 34  1  0  0  0  0
  8 35  1  0  0  0  0
  9 11  1  0  0  0  0
 10 12  1  0  0  0  0
 11 15  1  0  0  0  0
 11 18  2  0  0  0  0
 12 15  2  0  0  0  0
 12 36  1  0  0  0  0
 13 16  2  0  0  0  0
 13 37  1  0  0  0  0
 14 17  2  0  0  0  0
 14 38  1  0  0  0  0
 16 19  1  0  0  0  0
 16 20  1  0  0  0  0
 17 21  1  0  0  0  0
 17 22  1  0  0  0  0
 18 23  1  0  0  0  0
 19 39  1  0  0  0  0
 19 40  1  0  0  0  0
 19 41  1  0  0  0  0
 20 42  1  0  0  0  0
 20 43  1  0  0  0  0
 20 44  1  0  0  0  0
 21 45  1  0  0  0  0
 21 46  1  0  0  0  0
 21 47  1  0  0  0  0
 22 48  1  0  0  0  0
 22 49  1  0  0  0  0
 22 50  1  0  0  0  0
 23 25  2  0  0  0  0
 23 51  1  0  0  0  0
 24 52  1  0  0  0  0
 24 53  1  0  0  0  0
 24 54  1  0  0  0  0
 25 26  1  0  0  0  0
 25 56  1  0  0  0  0
 26 27  2  0  0  0  0
 26 28  1  0  0  0  0
 27 29  1  0  0  0  0
 27 57  1  0  0  0  0
 28 30  2  0  0  0  0
 28 58  1  0  0  0  0
 29 31  2  0  0  0  0
 29 59  1  0  0  0  0
 30 31  1  0  0  0  0
 30 60  1  0  0  0  0
M  END
> <PUBCHEM_COMPOUND_CID>
122363508

> <PUBCHEM_CONFORMER_RMSD>
1

> <PUBCHEM_CONFORMER_DIVERSEORDER>
2
60
29
56
40
48
9
54
50
36
15
18
38
57
12
53
28
31
5
23
14
20
26
47
34
59
24
55
33
35
44
39
22
45
27
32
13
30
8
37
43
10
42
41
58
11
4
46
7
25
51
6
52
21
3
17
1
19
16
49

> <PUBCHEM_MMFF94_PARTIAL_CHARGES>
42
1 -0.57
10 0.49
11 0.01
12 -0.14
13 -0.29
14 -0.29
15 0.08
16 -0.28
17 -0.28
18 0.08
19 0.14
2 -0.57
20 0.14
21 0.14
22 0.14
23 -0.15
24 0.28
25 -0.18
26 0.03
27 -0.15
28 -0.15
29 -0.15
3 -0.36
30 -0.15
31 0.08
36 0.15
37 0.15
38 0.15
4 -0.53
5 -0.53
51 0.15
55 0.45
56 0.15
57 0.15
58 0.15
59 0.15
6 0.12
60 0.15
61 0.45
7 0.14
8 0.14
9 0.49

> <PUBCHEM_EFFECTIVE_ROTOR_COUNT>
7.2

> <PUBCHEM_PHARMACOPHORE_FEATURES>
9
1 1 acceptor
1 2 acceptor
1 3 acceptor
1 4 donor
1 5 donor
3 16 19 20 hydrophobe
3 17 21 22 hydrophobe
6 26 27 28 29 30 31 rings
6 6 9 10 11 12 15 rings

> <PUBCHEM_HEAVY_ATOM_COUNT>
31

> <PUBCHEM_ATOM_DEF_STEREO_COUNT>
0

> <PUBCHEM_ATOM_UDEF_STEREO_COUNT>
0

> <PUBCHEM_BOND_DEF_STEREO_COUNT>
2

> <PUBCHEM_BOND_UDEF_STEREO_COUNT>
0

> <PUBCHEM_ISOTOPIC_ATOM_COUNT>
0

> <PUBCHEM_COMPONENT_COUNT>
1

> <PUBCHEM_CACTVS_TAUTO_COUNT>
24

> <PUBCHEM_CONFORMER_ID>
074B1E7400000002

> <PUBCHEM_MMFF94_ENERGY>
100.7717

> <PUBCHEM_FEATURE_SELFOVERLAP>
45.671

> <PUBCHEM_SHAPE_FINGERPRINT>
11578080 2 17607537022210740953
12166972 35 18131633391955603329
12422481 6 16987722290110854261
13533116 47 17846778486041013374
13782708 43 18186799206336700647
14537116 161 18333731312905656181
14955137 171 18410294714131299583
15001296 14 15936984070968113103
15420108 30 17622698227371029440
17909252 39 18265891346271404306
21315759 40 17418088850401209959
21365058 113 18337121089467910036
23559900 14 18339645641153034967
3411729 13 18044934812319330204
34797466 226 18334857251298307947
4144715 1 18409736183926150569
513532 50 18409158918530480786
58260988 647 18269565935527503882
70251023 43 18340491041726597362

> <PUBCHEM_SHAPE_MULTIPOLES>
608.62
14.47
3.91
2.05
31.11
3.24
-0.26
-9.49
1.95
-5.84
0.6
-1.57
-0.52
2.16

> <PUBCHEM_SHAPE_SELFOVERLAP>
1283.208

> <PUBCHEM_SHAPE_VOLUME>
340.1

> <PUBCHEM_COORDINATE_TYPE>
2
5
10

$$$$
