126558484
  -OEChem-03102309013D

 66 68  0     1  0  0  0  0  0999 V2000
    0.1643    0.8110    2.4971 O   0  0  0  0  0  0  0  0  0  0  0  0
    4.6230    0.9299    0.8271 O   0  0  0  0  0  0  0  0  0  0  0  0
    0.3367   -2.9156    0.4133 O   0  0  0  0  0  0  0  0  0  0  0  0
   -3.3842    0.1076    0.1691 O   0  0  0  0  0  0  0  0  0  0  0  0
   -3.3921   -2.8567    1.0933 O   0  0  0  0  0  0  0  0  0  0  0  0
    0.8234    0.1453   -0.8428 C   0  0  2  0  0  0  0  0  0  0  0  0
    0.7658   -0.5340    0.5550 C   0  0  1  0  0  0  0  0  0  0  0  0
    2.2892    0.6431   -0.9945 C   0  0  0  0  0  0  0  0  0  0  0  0
    3.0439   -0.5076   -0.2697 C   0  0  2  0  0  0  0  0  0  0  0  0
    2.2064   -0.7673    0.9939 C   0  0  0  0  0  0  0  0  0  0  0  0
   -0.3268    1.1759   -0.8763 C   0  0  0  0  0  0  0  0  0  0  0  0
   -1.1279    0.9677    0.4286 C   0  0  2  0  0  0  0  0  0  0  0  0
   -0.0102    0.5003    1.3304 C   0  0  0  0  0  0  0  0  0  0  0  0
    4.5129   -0.2677    0.0544 C   0  0  0  0  0  0  0  0  0  0  0  0
   -0.1196   -1.7759    0.4479 C   0  0  0  0  0  0  0  0  0  0  0  0
    2.6765    0.7212   -2.4784 C   0  0  0  0  0  0  0  0  0  0  0  0
    2.5670    2.0175   -0.3536 C   0  0  0  0  0  0  0  0  0  0  0  0
   -2.0566   -0.2495    0.3186 C   0  0  0  0  0  0  0  0  0  0  0  0
   -1.7789    2.2494    0.9340 C   0  0  0  0  0  0  0  0  0  0  0  0
   -1.6110   -1.5318    0.3358 C   0  0  0  0  0  0  0  0  0  0  0  0
    5.3237   -0.0612   -1.2253 C   0  0  0  0  0  0  0  0  0  0  0  0
    5.0913   -1.4244    0.8714 C   0  0  0  0  0  0  0  0  0  0  0  0
   -2.4333    3.0024   -0.1857 C   0  0  0  0  0  0  0  0  0  0  0  0
   -2.5229   -2.6832    0.2361 C   0  0  0  0  0  0  0  0  0  0  0  0
   -2.3260   -3.6349   -0.9423 C   0  0  0  0  0  0  0  0  0  0  0  0
   -2.5559    4.3364   -0.3204 C   0  0  0  0  0  0  0  0  0  0  0  0
   -2.0030   -5.0333   -0.4262 C   0  0  0  0  0  0  0  0  0  0  0  0
   -3.5604   -3.6595   -1.8405 C   0  0  0  0  0  0  0  0  0  0  0  0
   -1.9893    5.2637    0.7216 C   0  0  0  0  0  0  0  0  0  0  0  0
   -3.2260    5.0313   -1.4716 C   0  0  0  0  0  0  0  0  0  0  0  0
    0.6319   -0.6062   -1.6238 H   0  0  0  0  0  0  0  0  0  0  0  0
    2.9726   -1.4147   -0.8906 H   0  0  0  0  0  0  0  0  0  0  0  0
    2.3641   -1.7858    1.3641 H   0  0  0  0  0  0  0  0  0  0  0  0
    2.4849   -0.0881    1.8073 H   0  0  0  0  0  0  0  0  0  0  0  0
    0.0416    2.1990   -0.9645 H   0  0  0  0  0  0  0  0  0  0  0  0
   -0.9507    1.0016   -1.7626 H   0  0  0  0  0  0  0  0  0  0  0  0
    1.8816    1.2268   -3.0411 H   0  0  0  0  0  0  0  0  0  0  0  0
    2.7948   -0.2723   -2.9239 H   0  0  0  0  0  0  0  0  0  0  0  0
    3.5793    1.3020   -2.6715 H   0  0  0  0  0  0  0  0  0  0  0  0
    1.9472    2.7958   -0.8103 H   0  0  0  0  0  0  0  0  0  0  0  0
    2.3637    2.0404    0.7206 H   0  0  0  0  0  0  0  0  0  0  0  0
    3.5850    2.3720   -0.5410 H   0  0  0  0  0  0  0  0  0  0  0  0
   -2.5209    2.0298    1.7116 H   0  0  0  0  0  0  0  0  0  0  0  0
   -1.0081    2.8689    1.4061 H   0  0  0  0  0  0  0  0  0  0  0  0
    6.3936   -0.1905   -1.0158 H   0  0  0  0  0  0  0  0  0  0  0  0
    5.2553    0.9600   -1.6055 H   0  0  0  0  0  0  0  0  0  0  0  0
    5.0677   -0.7845   -2.0054 H   0  0  0  0  0  0  0  0  0  0  0  0
    6.1627   -1.2749    1.0515 H   0  0  0  0  0  0  0  0  0  0  0  0
    4.6382   -1.4890    1.8662 H   0  0  0  0  0  0  0  0  0  0  0  0
    4.9644   -2.3838    0.3594 H   0  0  0  0  0  0  0  0  0  0  0  0
    5.5641    1.0731    1.0264 H   0  0  0  0  0  0  0  0  0  0  0  0
   -2.8984    2.3999   -0.9646 H   0  0  0  0  0  0  0  0  0  0  0  0
   -3.9173   -0.7005    0.0869 H   0  0  0  0  0  0  0  0  0  0  0  0
   -1.4816   -3.2850   -1.5480 H   0  0  0  0  0  0  0  0  0  0  0  0
   -2.8436   -5.4525    0.1383 H   0  0  0  0  0  0  0  0  0  0  0  0
   -1.1367   -5.0256    0.2420 H   0  0  0  0  0  0  0  0  0  0  0  0
   -1.7829   -5.7120   -1.2569 H   0  0  0  0  0  0  0  0  0  0  0  0
   -4.4417   -4.0182   -1.2975 H   0  0  0  0  0  0  0  0  0  0  0  0
   -3.7890   -2.6532   -2.2080 H   0  0  0  0  0  0  0  0  0  0  0  0
   -3.4024   -4.3114   -2.7058 H   0  0  0  0  0  0  0  0  0  0  0  0
   -1.0504    5.7001    0.3659 H   0  0  0  0  0  0  0  0  0  0  0  0
   -1.8100    4.7906    1.6900 H   0  0  0  0  0  0  0  0  0  0  0  0
   -2.6916    6.0828    0.9148 H   0  0  0  0  0  0  0  0  0  0  0  0
   -4.0801    5.6187   -1.1197 H   0  0  0  0  0  0  0  0  0  0  0  0
   -2.5215    5.7019   -1.9741 H   0  0  0  0  0  0  0  0  0  0  0  0
   -3.5950    4.3167   -2.2147 H   0  0  0  0  0  0  0  0  0  0  0  0
  1 13  2  0  0  0  0
  2 14  1  0  0  0  0
  2 51  1  0  0  0  0
  3 15  2  0  0  0  0
  4 18  1  0  0  0  0
  4 53  1  0  0  0  0
  5 24  2  0  0  0  0
  6  7  1  0  0  0  0
  6  8  1  0  0  0  0
  6 11  1  0  0  0  0
  6 31  1  0  0  0  0
  7 10  1  0  0  0  0
  7 13  1  0  0  0  0
  7 15  1  0  0  0  0
  8  9  1  0  0  0  0
  8 16  1  0  0  0  0
  8 17  1  0  0  0  0
  9 10  1  0  0  0  0
  9 14  1  0  0  0  0
  9 32  1  0  0  0  0
 10 33  1  0  0  0  0
 10 34  1  0  0  0  0
 11 12  1  0  0  0  0
 11 35  1  0  0  0  0
 11 36  1  0  0  0  0
 12 13  1  0  0  0  0
 12 18  1  0  0  0  0
 12 19  1  0  0  0  0
 14 21  1  0  0  0  0
 14 22  1  0  0  0  0
 15 20  1  0  0  0  0
 16 37  1  0  0  0  0
 16 38  1  0  0  0  0
 16 39  1  0  0  0  0
 17 40  1  0  0  0  0
 17 41  1  0  0  0  0
 17 42  1  0  0  0  0
 18 20  2  0  0  0  0
 19 23  1  0  0  0  0
 19 43  1  0  0  0  0
 19 44  1  0  0  0  0
 20 24  1  0  0  0  0
 21 45  1  0  0  0  0
 21 46  1  0  0  0  0
 21 47  1  0  0  0  0
 22 48  1  0  0  0  0
 22 49  1  0  0  0  0
 22 50  1  0  0  0  0
 23 26  2  0  0  0  0
 23 52  1  0  0  0  0
 24 25  1  0  0  0  0
 25 27  1  0  0  0  0
 25 28  1  0  0  0  0
 25 54  1  0  0  0  0
 26 29  1  0  0  0  0
 26 30  1  0  0  0  0
 27 55  1  0  0  0  0
 27 56  1  0  0  0  0
 27 57  1  0  0  0  0
 28 58  1  0  0  0  0
 28 59  1  0  0  0  0
 28 60  1  0  0  0  0
 29 61  1  0  0  0  0
 29 62  1  0  0  0  0
 29 63  1  0  0  0  0
 30 64  1  0  0  0  0
 30 65  1  0  0  0  0
 30 66  1  0  0  0  0
M  END
> <PUBCHEM_COMPOUND_CID>
126558484

> <PUBCHEM_CONFORMER_RMSD>
0.8

> <PUBCHEM_CONFORMER_DIVERSEORDER>
6
72
61
16
50
78
69
45
80
47
71
30
12
52
66
51
49
32
76
79
65
60
67
48
28
77
36
57
35
55
59
46
19
24
38
54
63
9
18
56
73
31
42
27
53
74
25
34
8
75
58
68
70
44
43
20
21
62
64
15
39
29
33
2
5
17
37
10
14
23
7
26
13
3
40
41
22
1
4
11

> <PUBCHEM_MMFF94_PARTIAL_CHARGES>
22
1 -0.57
12 0.2
13 0.45
14 0.28
15 0.49
18 -0.06
19 0.14
2 -0.68
20 0.03
23 -0.29
24 0.49
25 0.06
26 -0.28
29 0.14
3 -0.57
30 0.14
4 -0.53
5 -0.57
51 0.4
52 0.15
53 0.45
7 0.12

> <PUBCHEM_EFFECTIVE_ROTOR_COUNT>
5.8

> <PUBCHEM_PHARMACOPHORE_FEATURES>
12
1 1 acceptor
1 2 acceptor
1 2 donor
1 3 acceptor
1 4 donor
1 5 acceptor
3 14 21 22 hydrophobe
3 25 27 28 hydrophobe
3 26 29 30 hydrophobe
3 8 16 17 hydrophobe
5 6 7 8 9 10 rings
8 6 7 11 12 13 15 18 20 rings

> <PUBCHEM_HEAVY_ATOM_COUNT>
30

> <PUBCHEM_ATOM_DEF_STEREO_COUNT>
2

> <PUBCHEM_ATOM_UDEF_STEREO_COUNT>
2

> <PUBCHEM_BOND_DEF_STEREO_COUNT>
0

> <PUBCHEM_BOND_UDEF_STEREO_COUNT>
0

> <PUBCHEM_ISOTOPIC_ATOM_COUNT>
0

> <PUBCHEM_COMPONENT_COUNT>
1

> <PUBCHEM_CACTVS_TAUTO_COUNT>
7

> <PUBCHEM_CONFORMER_ID>
078B211400000006

> <PUBCHEM_MMFF94_ENERGY>
116.9463

> <PUBCHEM_FEATURE_SELFOVERLAP>
60.947

> <PUBCHEM_SHAPE_FINGERPRINT>
11578080 2 18046039804166756892
11582403 64 17126160665693892504
11763715 3 18046932616556732412
12107183 9 17828476978279954394
12160290 23 18196121930266567345
12173636 292 18266458702813655445
12422481 6 17173769441993802032
12553582 1 18052553354094625319
12788726 201 18263102031157693052
13004483 165 18337678632341977883
13009979 54 18188215423977570294
13134695 92 17906166605176184431
13140716 1 18335991977162536187
13540713 5 17967253071161760166
13583140 156 17917422125911593474
13690498 29 18267891495835503686
14294032 229 18339088064826667585
14508225 48 18125712633308459295
14790565 3 17903643986563945332
14955137 171 18046081603516293443
15081414 286 16537642458352883657
15219462 58 17622107621895849138
15420108 30 17903903475264866570
15439362 3 17184752394423396469
15664445 248 17618789501576684456
15775530 1 17986931119903853105
15878777 1 17609732626824728707
16087824 20 18410294706248213963
16945 1 18340783579816252587
17349148 13 17896036727646208986
17980427 26 16401061252440807392
1813 80 17912099544250255319
20600515 1 17914919718755741849
20775438 99 17478563200824922565
21033648 29 18197490723902857176
21304303 282 18195219175512228133
23366157 5 17257094191126727115
23419403 2 17487601159970480337
23559900 14 18202291320855653870
23929065 36 18196345157318920032
24941158 1 17114062000482033159
25222932 49 15967279902717668957
255183 313 18200609029325893251
376196 1 17538002463888048609
38695281 34 17905884777821854764
4017518 198 17695616360814200054
4409770 3 18410288082601554499
463206 1 17974854183264520994
59755656 520 17843140111822650576
7164475 11 18337396057980136126
9981440 41 17978228262369453089

> <PUBCHEM_SHAPE_MULTIPOLES>
588.04
7.88
6.69
1.61
9.96
0.83
0.31
-2.9
1.24
-12.54
1.8
0.28
-0.21
-0.68

> <PUBCHEM_SHAPE_SELFOVERLAP>
1253.82

> <PUBCHEM_SHAPE_VOLUME>
331.7

> <PUBCHEM_COORDINATE_TYPE>
2
5
10

$$$$
