13250
  -OEChem-03112309323D

 24 24  0     0  0  0  0  0  0999 V2000
   -2.5118    0.2584   -0.0001 O   0  0  0  0  0  0  0  0  0  0  0  0
    3.0427   -1.9470    0.0033 O   0  0  0  0  0  0  0  0  0  0  0  0
    1.7068    2.6524   -0.0013 O   0  0  0  0  0  0  0  0  0  0  0  0
    3.7113    0.7412    0.0017 O   0  0  0  0  0  0  0  0  0  0  0  0
   -2.0610   -1.9990   -0.0019 O   0  0  0  0  0  0  0  0  0  0  0  0
   -0.2770   -0.4171   -0.0024 C   0  0  0  0  0  0  0  0  0  0  0  0
    0.0560    0.9374   -0.0023 C   0  0  0  0  0  0  0  0  0  0  0  0
    0.7296   -1.3828   -0.0009 C   0  0  0  0  0  0  0  0  0  0  0  0
    2.0691   -0.9939    0.0007 C   0  0  0  0  0  0  0  0  0  0  0  0
    1.3956    1.3262   -0.0008 C   0  0  0  0  0  0  0  0  0  0  0  0
    2.4021    0.3605    0.0007 C   0  0  0  0  0  0  0  0  0  0  0  0
   -1.6734   -0.8229   -0.0019 C   0  0  0  0  0  0  0  0  0  0  0  0
   -3.9175   -0.0127    0.0018 C   0  0  0  0  0  0  0  0  0  0  0  0
   -4.6727    1.2993    0.0035 C   0  0  0  0  0  0  0  0  0  0  0  0
   -0.7049    1.7135   -0.0032 H   0  0  0  0  0  0  0  0  0  0  0  0
    0.4851   -2.4424   -0.0003 H   0  0  0  0  0  0  0  0  0  0  0  0
   -4.1776   -0.5901   -0.8921 H   0  0  0  0  0  0  0  0  0  0  0  0
   -4.1749   -0.5908    0.8960 H   0  0  0  0  0  0  0  0  0  0  0  0
   -5.7529    1.1289    0.0050 H   0  0  0  0  0  0  0  0  0  0  0  0
   -4.4072    1.8955    0.8828 H   0  0  0  0  0  0  0  0  0  0  0  0
   -4.4099    1.8961   -0.8762 H   0  0  0  0  0  0  0  0  0  0  0  0
    3.9074   -1.5008    0.0045 H   0  0  0  0  0  0  0  0  0  0  0  0
    0.8855    3.1731   -0.0026 H   0  0  0  0  0  0  0  0  0  0  0  0
    3.7485    1.7135    0.0014 H   0  0  0  0  0  0  0  0  0  0  0  0
  1 12  1  0  0  0  0
  1 13  1  0  0  0  0
  2  9  1  0  0  0  0
  2 22  1  0  0  0  0
  3 10  1  0  0  0  0
  3 23  1  0  0  0  0
  4 11  1  0  0  0  0
  4 24  1  0  0  0  0
  5 12  2  0  0  0  0
  6  7  2  0  0  0  0
  6  8  1  0  0  0  0
  6 12  1  0  0  0  0
  7 10  1  0  0  0  0
  7 15  1  0  0  0  0
  8  9  2  0  0  0  0
  8 16  1  0  0  0  0
  9 11  1  0  0  0  0
 10 11  2  0  0  0  0
 13 14  1  0  0  0  0
 13 17  1  0  0  0  0
 13 18  1  0  0  0  0
 14 19  1  0  0  0  0
 14 20  1  0  0  0  0
 14 21  1  0  0  0  0
M  END
> <PUBCHEM_COMPOUND_CID>
13250

> <PUBCHEM_CONFORMER_RMSD>
0.6

> <PUBCHEM_CONFORMER_DIVERSEORDER>
1
4
2
3
5
6
7

> <PUBCHEM_MMFF94_PARTIAL_CHARGES>
18
1 -0.43
10 0.08
11 0.08
12 0.63
13 0.28
15 0.15
16 0.15
2 -0.53
22 0.45
23 0.45
24 0.45
3 -0.53
4 -0.53
5 -0.57
6 0.09
7 -0.15
8 -0.15
9 0.08

> <PUBCHEM_EFFECTIVE_ROTOR_COUNT>
3

> <PUBCHEM_PHARMACOPHORE_FEATURES>
5
1 2 donor
1 3 donor
1 4 donor
1 5 acceptor
6 6 7 8 9 10 11 rings

> <PUBCHEM_HEAVY_ATOM_COUNT>
14

> <PUBCHEM_ATOM_DEF_STEREO_COUNT>
0

> <PUBCHEM_ATOM_UDEF_STEREO_COUNT>
0

> <PUBCHEM_BOND_DEF_STEREO_COUNT>
0

> <PUBCHEM_BOND_UDEF_STEREO_COUNT>
0

> <PUBCHEM_ISOTOPIC_ATOM_COUNT>
0

> <PUBCHEM_COMPONENT_COUNT>
1

> <PUBCHEM_CACTVS_TAUTO_COUNT>
14

> <PUBCHEM_CONFORMER_ID>
000033C200000001

> <PUBCHEM_MMFF94_ENERGY>
31.9185

> <PUBCHEM_FEATURE_SELFOVERLAP>
25.381

> <PUBCHEM_SHAPE_FINGERPRINT>
10130415 120 18335135341424279082
10608611 8 18337389448015125721
10967382 1 18410575067514864740
10980938 120 18409167692710549699
11471102 20 18410289181859968317
116883 192 17984428438333823892
12932764 1 17416406678455468155
13380535 21 18335710497869830311
13380535 76 18411418431941885775
13571099 22 18271810103014635054
13922767 16 18411134702122902673
14144814 61 18412266116730693795
14325111 11 18266458900281540837
14648413 74 18336549429325618889
14897335 6 18412822516917114751
15442244 35 18340206276250881121
15775835 57 18408326613554549767
16945 1 18338797917978001030
18186145 218 18341897347052329253
20606313 2 18411136913635349773
20645477 70 18341049614686636919
20871998 22 18126567808637107246
21501502 16 18337667645705046743
23402539 116 18128805361827662623
23402655 69 18343295943070384389
25 1 18334856129794905062
2748010 2 17761216913839594300
5104073 3 18410012130937080139
528886 8 18411695517182172378
53812653 166 18341327890002005952
63268167 104 18411143540833145800
7364860 26 18342458170785968360
74978 22 18411984684656391011
7832392 63 18341047501393395805

> <PUBCHEM_SHAPE_MULTIPOLES>
258.77
6.83
2.11
0.58
6.36
0.34
0
1.39
-0.01
-0.92
0
0.03
0
0

> <PUBCHEM_SHAPE_SELFOVERLAP>
541.051

> <PUBCHEM_SHAPE_VOLUME>
147.5

> <PUBCHEM_COORDINATE_TYPE>
2
5
10

$$$$
