13783106
  -OEChem-03112306463D

 26 26  0     1  0  0  0  0  0999 V2000
    0.9721   -2.3409    0.0577 O   0  0  0  0  0  0  0  0  0  0  0  0
   -2.0227    2.0089    0.4293 O   0  0  0  0  0  0  0  0  0  0  0  0
    0.0419    1.0333    0.1404 N   0  0  0  0  0  0  0  0  0  0  0  0
   -1.1048   -1.3486    0.0551 N   0  0  0  0  0  0  0  0  0  0  0  0
    0.8205    0.0071   -0.5375 C   0  0  1  0  0  0  0  0  0  0  0  0
    2.3038    0.1523   -0.2381 C   0  0  0  0  0  0  0  0  0  0  0  0
   -1.9329   -0.2568   -0.4355 C   0  0  2  0  0  0  0  0  0  0  0  0
    0.2756   -1.3374   -0.0747 C   0  0  0  0  0  0  0  0  0  0  0  0
   -1.3446    1.0299    0.1271 C   0  0  0  0  0  0  0  0  0  0  0  0
    2.8180    1.4916   -0.7489 C   0  0  0  0  0  0  0  0  0  0  0  0
    2.5595    0.0024    1.2557 C   0  0  0  0  0  0  0  0  0  0  0  0
   -3.3864   -0.4419   -0.0304 C   0  0  0  0  0  0  0  0  0  0  0  0
    0.6300    0.0953   -1.6143 H   0  0  0  0  0  0  0  0  0  0  0  0
    2.8535   -0.6419   -0.7598 H   0  0  0  0  0  0  0  0  0  0  0  0
   -1.8454   -0.2295   -1.5279 H   0  0  0  0  0  0  0  0  0  0  0  0
    0.4926    1.8878    0.4506 H   0  0  0  0  0  0  0  0  0  0  0  0
   -1.5486   -2.2299    0.2960 H   0  0  0  0  0  0  0  0  0  0  0  0
    2.4253    2.3434   -0.1855 H   0  0  0  0  0  0  0  0  0  0  0  0
    3.9101    1.5313   -0.6649 H   0  0  0  0  0  0  0  0  0  0  0  0
    2.5671    1.6337   -1.8056 H   0  0  0  0  0  0  0  0  0  0  0  0
    2.0478    0.7700    1.8461 H   0  0  0  0  0  0  0  0  0  0  0  0
    3.6314    0.1090    1.4607 H   0  0  0  0  0  0  0  0  0  0  0  0
    2.2662   -0.9747    1.6478 H   0  0  0  0  0  0  0  0  0  0  0  0
   -3.4964   -0.4546    1.0599 H   0  0  0  0  0  0  0  0  0  0  0  0
   -4.0094    0.3704   -0.4191 H   0  0  0  0  0  0  0  0  0  0  0  0
   -3.7812   -1.3880   -0.4158 H   0  0  0  0  0  0  0  0  0  0  0  0
  1  8  2  0  0  0  0
  2  9  2  0  0  0  0
  3  5  1  0  0  0  0
  3  9  1  0  0  0  0
  3 16  1  0  0  0  0
  4  7  1  0  0  0  0
  4  8  1  0  0  0  0
  4 17  1  0  0  0  0
  5  6  1  0  0  0  0
  5  8  1  0  0  0  0
  5 13  1  0  0  0  0
  6 10  1  0  0  0  0
  6 11  1  0  0  0  0
  6 14  1  0  0  0  0
  7  9  1  0  0  0  0
  7 12  1  0  0  0  0
  7 15  1  0  0  0  0
 10 18  1  0  0  0  0
 10 19  1  0  0  0  0
 10 20  1  0  0  0  0
 11 21  1  0  0  0  0
 11 22  1  0  0  0  0
 11 23  1  0  0  0  0
 12 24  1  0  0  0  0
 12 25  1  0  0  0  0
 12 26  1  0  0  0  0
M  END
> <PUBCHEM_COMPOUND_CID>
13783106

> <PUBCHEM_CONFORMER_RMSD>
0.4

> <PUBCHEM_CONFORMER_DIVERSEORDER>
1
7
5
6
8
3
2
9
4

> <PUBCHEM_MMFF94_PARTIAL_CHARGES>
10
1 -0.57
16 0.37
17 0.37
2 -0.57
3 -0.73
4 -0.73
5 0.36
7 0.36
8 0.57
9 0.57

> <PUBCHEM_EFFECTIVE_ROTOR_COUNT>
1.8

> <PUBCHEM_PHARMACOPHORE_FEATURES>
6
1 1 acceptor
1 2 acceptor
1 3 donor
1 4 donor
3 6 10 11 hydrophobe
6 3 4 5 7 8 9 rings

> <PUBCHEM_HEAVY_ATOM_COUNT>
12

> <PUBCHEM_ATOM_DEF_STEREO_COUNT>
2

> <PUBCHEM_ATOM_UDEF_STEREO_COUNT>
0

> <PUBCHEM_BOND_DEF_STEREO_COUNT>
0

> <PUBCHEM_BOND_UDEF_STEREO_COUNT>
0

> <PUBCHEM_ISOTOPIC_ATOM_COUNT>
0

> <PUBCHEM_COMPONENT_COUNT>
1

> <PUBCHEM_CACTVS_TAUTO_COUNT>
4

> <PUBCHEM_CONFORMER_ID>
00D2504200000001

> <PUBCHEM_MMFF94_ENERGY>
36.8508

> <PUBCHEM_FEATURE_SELFOVERLAP>
30.455

> <PUBCHEM_SHAPE_FINGERPRINT>
12423570 1 10083484313829917350
12932764 1 17346595274660876829
13380535 21 18127143986931161289
14325111 11 18410295808799561052
15490181 8 18335709320932837586
15775835 57 18273219694132942296
16945 1 18342452677200984975
193761 8 18122909724576179527
19973954 147 18267586801701081263
20511035 2 17912070656083457391
20645476 183 17678747949493002758
21040471 1 18340769256295362726
21501502 16 18268432330548597603
22802520 49 18056510376520776822
230 275 18341326708632733350
23235685 24 18409728503701582013
23402539 116 18270954769157631124
23463225 33 18334006164662942402
23552423 10 18265055734471316439
241688 4 17687183093331707978
2748010 2 18195529186304420087
369184 2 16877654682190344605
5084963 1 18130795546603781260
53812653 8 18410016575769327156
57177213 63 18409455764704195102
7364860 26 17986108504954786566

> <PUBCHEM_SHAPE_MULTIPOLES>
225.25
4.44
1.89
0.85
0.64
0.27
0.12
-1.01
0.06
0.05
0.05
-0.48
-0.08
-0.46

> <PUBCHEM_SHAPE_SELFOVERLAP>
451.487

> <PUBCHEM_SHAPE_VOLUME>
132

> <PUBCHEM_COORDINATE_TYPE>
2
5
10

$$$$
