13783108
  -OEChem-03112306443D

 30 31  0     1  0  0  0  0  0999 V2000
    1.5611    2.7346    0.4184 O   0  0  0  0  0  0  0  0  0  0  0  0
    2.3889   -2.4928    0.2877 O   0  0  0  0  0  0  0  0  0  0  0  0
    0.9563   -0.7111    0.5542 N   0  0  0  0  0  0  0  0  0  0  0  0
    2.9029    0.9453   -0.1259 N   0  0  0  0  0  0  0  0  0  0  0  0
    0.5090    0.5788    0.0496 C   0  0  1  0  0  0  0  0  0  0  0  0
   -0.7124    1.0742    0.8070 C   0  0  0  0  0  0  0  0  0  0  0  0
    2.9865   -0.3743   -0.7343 C   0  0  2  0  0  0  0  0  0  0  0  0
    1.6863    1.5357    0.1803 C   0  0  0  0  0  0  0  0  0  0  0  0
    2.1284   -1.3050    0.1117 C   0  0  0  0  0  0  0  0  0  0  0  0
   -1.9779    0.4155    0.3231 C   0  0  0  0  0  0  0  0  0  0  0  0
    4.4273   -0.8515   -0.8207 C   0  0  0  0  0  0  0  0  0  0  0  0
   -2.6982    0.9977   -0.7101 C   0  0  0  0  0  0  0  0  0  0  0  0
   -2.4041   -0.7637    0.9173 C   0  0  0  0  0  0  0  0  0  0  0  0
   -3.8699    0.3879   -1.1584 C   0  0  0  0  0  0  0  0  0  0  0  0
   -3.5757   -1.3735    0.4689 C   0  0  0  0  0  0  0  0  0  0  0  0
   -4.3085   -0.7976   -0.5690 C   0  0  0  0  0  0  0  0  0  0  0  0
    0.2993    0.4666   -1.0221 H   0  0  0  0  0  0  0  0  0  0  0  0
   -0.8337    2.1592    0.6905 H   0  0  0  0  0  0  0  0  0  0  0  0
   -0.5976    0.9154    1.8880 H   0  0  0  0  0  0  0  0  0  0  0  0
    2.5478   -0.3138   -1.7370 H   0  0  0  0  0  0  0  0  0  0  0  0
    0.3094   -1.2931    1.0763 H   0  0  0  0  0  0  0  0  0  0  0  0
    3.7279    1.5380   -0.1261 H   0  0  0  0  0  0  0  0  0  0  0  0
    4.8785   -0.9349    0.1745 H   0  0  0  0  0  0  0  0  0  0  0  0
    4.4877   -1.8353   -1.2978 H   0  0  0  0  0  0  0  0  0  0  0  0
    5.0354   -0.1521   -1.4043 H   0  0  0  0  0  0  0  0  0  0  0  0
   -2.3639    1.9195   -1.1777 H   0  0  0  0  0  0  0  0  0  0  0  0
   -1.8495   -1.2177    1.7332 H   0  0  0  0  0  0  0  0  0  0  0  0
   -4.4402    0.8358   -1.9669 H   0  0  0  0  0  0  0  0  0  0  0  0
   -3.9187   -2.2954    0.9293 H   0  0  0  0  0  0  0  0  0  0  0  0
   -5.2210   -1.2723   -0.9178 H   0  0  0  0  0  0  0  0  0  0  0  0
  1  8  2  0  0  0  0
  2  9  2  0  0  0  0
  3  5  1  0  0  0  0
  3  9  1  0  0  0  0
  3 21  1  0  0  0  0
  4  7  1  0  0  0  0
  4  8  1  0  0  0  0
  4 22  1  0  0  0  0
  5  6  1  0  0  0  0
  5  8  1  0  0  0  0
  5 17  1  0  0  0  0
  6 10  1  0  0  0  0
  6 18  1  0  0  0  0
  6 19  1  0  0  0  0
  7  9  1  0  0  0  0
  7 11  1  0  0  0  0
  7 20  1  0  0  0  0
 10 12  2  0  0  0  0
 10 13  1  0  0  0  0
 11 23  1  0  0  0  0
 11 24  1  0  0  0  0
 11 25  1  0  0  0  0
 12 14  1  0  0  0  0
 12 26  1  0  0  0  0
 13 15  2  0  0  0  0
 13 27  1  0  0  0  0
 14 16  2  0  0  0  0
 14 28  1  0  0  0  0
 15 16  1  0  0  0  0
 15 29  1  0  0  0  0
 16 30  1  0  0  0  0
M  END
> <PUBCHEM_COMPOUND_CID>
13783108

> <PUBCHEM_CONFORMER_RMSD>
0.6

> <PUBCHEM_CONFORMER_DIVERSEORDER>
2
11
13
7
10
8
4
12
5
9
3
6
1

> <PUBCHEM_MMFF94_PARTIAL_CHARGES>
22
1 -0.57
10 -0.14
12 -0.15
13 -0.15
14 -0.15
15 -0.15
16 -0.15
2 -0.57
21 0.37
22 0.37
26 0.15
27 0.15
28 0.15
29 0.15
3 -0.73
30 0.15
4 -0.73
5 0.36
6 0.14
7 0.36
8 0.57
9 0.57

> <PUBCHEM_EFFECTIVE_ROTOR_COUNT>
2.8

> <PUBCHEM_PHARMACOPHORE_FEATURES>
6
1 1 acceptor
1 2 acceptor
1 3 donor
1 4 donor
6 10 12 13 14 15 16 rings
6 3 4 5 7 8 9 rings

> <PUBCHEM_HEAVY_ATOM_COUNT>
16

> <PUBCHEM_ATOM_DEF_STEREO_COUNT>
2

> <PUBCHEM_ATOM_UDEF_STEREO_COUNT>
0

> <PUBCHEM_BOND_DEF_STEREO_COUNT>
0

> <PUBCHEM_BOND_UDEF_STEREO_COUNT>
0

> <PUBCHEM_ISOTOPIC_ATOM_COUNT>
0

> <PUBCHEM_COMPONENT_COUNT>
1

> <PUBCHEM_CACTVS_TAUTO_COUNT>
4

> <PUBCHEM_CONFORMER_ID>
00D2504400000002

> <PUBCHEM_MMFF94_ENERGY>
51.4599

> <PUBCHEM_FEATURE_SELFOVERLAP>
30.455

> <PUBCHEM_SHAPE_FINGERPRINT>
10498660 4 16660630835664962773
10608611 8 18261666065025276093
11806522 49 18343304773396459632
12251169 10 10879986956550285413
12553582 1 18339932497671065754
12707595 3 18343302560965932854
13296908 3 18412261766013309769
13705890 14 18412265047236565548
14251717 144 18412263969189029854
14252887 29 17704077266039676694
14576447 43 18413667998309293310
15219456 202 18335416924149620913
15757776 16 18411139100259117030
17834074 16 18337109063838730511
18186145 218 18260260859184414961
18915474 69 17774715480401880063
19422 9 17774731956080952457
19433438 38 18040434382208310887
200 152 18130786763427270491
20201158 50 18408323293661062939
20279233 1 18260826029277056873
20361792 2 17131826582271535113
20645477 70 18273212032169684365
20671657 53 18341898463174217836
20871999 31 18261956241426133717
21256008 61 18343302561303575524
21713013 43 18334573577319642583
221490 88 18265622150447612330
2255824 54 18270685380213811084
22646028 28 17917993867045910791
23402539 116 18129388111954806318
23402655 69 18261109617420011725
23557571 272 17604989385597878381
23559900 14 18336256920504474417
2748010 2 17903652013498411010
2838139 119 15937274320763398630
2871803 45 18407760347839110943
3323516 105 18335140929377061211
4921388 177 16515698749036049835
58051976 100 18411418410798956135
6049 1 18114188583313344129
7364860 26 18200591518190702752
93112 12 18408037407953288837
9709674 26 18263080084212569955

> <PUBCHEM_SHAPE_MULTIPOLES>
307.57
8.13
2.05
0.97
1.38
0.27
0.1
-2.81
2.56
-1.31
-0.35
0.43
0
0.55

> <PUBCHEM_SHAPE_SELFOVERLAP>
648.465

> <PUBCHEM_SHAPE_VOLUME>
171.1

> <PUBCHEM_COORDINATE_TYPE>
2
5
10

$$$$
