13879946
  -OEChem-03112306443D

 29 29  0     1  0  0  0  0  0999 V2000
    0.2146    2.7662    0.3702 O   0  0  0  0  0  0  0  0  0  0  0  0
    1.6357   -2.3336    0.3503 O   0  0  0  0  0  0  0  0  0  0  0  0
   -0.0120   -0.7273    0.4042 N   0  0  0  0  0  0  0  0  0  0  0  0
    1.8152    1.1477    0.0281 N   0  0  0  0  0  0  0  0  0  0  0  0
   -0.5216    0.5148   -0.1582 C   0  0  1  0  0  0  0  0  0  0  0  0
   -1.8899    0.8567    0.4090 C   0  0  0  0  0  0  0  0  0  0  0  0
   -2.9800   -0.1702    0.0529 C   0  0  0  0  0  0  0  0  0  0  0  0
    2.1362   -0.1423   -0.5646 C   0  0  2  0  0  0  0  0  0  0  0  0
    0.5079    1.5935    0.1503 C   0  0  0  0  0  0  0  0  0  0  0  0
    1.2722   -1.1788    0.1406 C   0  0  0  0  0  0  0  0  0  0  0  0
   -3.1335   -0.3560   -1.4574 C   0  0  0  0  0  0  0  0  0  0  0  0
   -2.6631   -1.5157    0.7099 C   0  0  0  0  0  0  0  0  0  0  0  0
    3.6183   -0.4550   -0.4355 C   0  0  0  0  0  0  0  0  0  0  0  0
   -0.5497    0.4106   -1.2485 H   0  0  0  0  0  0  0  0  0  0  0  0
   -1.8321    0.9629    1.5008 H   0  0  0  0  0  0  0  0  0  0  0  0
   -2.2063    1.8367    0.0280 H   0  0  0  0  0  0  0  0  0  0  0  0
   -3.9297    0.2006    0.4585 H   0  0  0  0  0  0  0  0  0  0  0  0
    1.8474   -0.1111   -1.6216 H   0  0  0  0  0  0  0  0  0  0  0  0
   -0.5390   -1.3025    1.0412 H   0  0  0  0  0  0  0  0  0  0  0  0
    2.5590    1.8281    0.1533 H   0  0  0  0  0  0  0  0  0  0  0  0
   -2.2680   -0.8491   -1.9106 H   0  0  0  0  0  0  0  0  0  0  0  0
   -3.2809    0.6081   -1.9549 H   0  0  0  0  0  0  0  0  0  0  0  0
   -4.0094   -0.9781   -1.6729 H   0  0  0  0  0  0  0  0  0  0  0  0
   -1.9907   -2.1494    0.1242 H   0  0  0  0  0  0  0  0  0  0  0  0
   -3.5968   -2.0936    0.7545 H   0  0  0  0  0  0  0  0  0  0  0  0
   -2.3433   -1.4129    1.7518 H   0  0  0  0  0  0  0  0  0  0  0  0
    3.9231   -0.5074    0.6159 H   0  0  0  0  0  0  0  0  0  0  0  0
    3.8593   -1.4165   -0.9009 H   0  0  0  0  0  0  0  0  0  0  0  0
    4.2238    0.3188   -0.9193 H   0  0  0  0  0  0  0  0  0  0  0  0
  1  9  2  0  0  0  0
  2 10  2  0  0  0  0
  3  5  1  0  0  0  0
  3 10  1  0  0  0  0
  3 19  1  0  0  0  0
  4  8  1  0  0  0  0
  4  9  1  0  0  0  0
  4 20  1  0  0  0  0
  5  6  1  0  0  0  0
  5  9  1  0  0  0  0
  5 14  1  0  0  0  0
  6  7  1  0  0  0  0
  6 15  1  0  0  0  0
  6 16  1  0  0  0  0
  7 11  1  0  0  0  0
  7 12  1  0  0  0  0
  7 17  1  0  0  0  0
  8 10  1  0  0  0  0
  8 13  1  0  0  0  0
  8 18  1  0  0  0  0
 11 21  1  0  0  0  0
 11 22  1  0  0  0  0
 11 23  1  0  0  0  0
 12 24  1  0  0  0  0
 12 25  1  0  0  0  0
 12 26  1  0  0  0  0
 13 27  1  0  0  0  0
 13 28  1  0  0  0  0
 13 29  1  0  0  0  0
M  END
> <PUBCHEM_COMPOUND_CID>
13879946

> <PUBCHEM_CONFORMER_RMSD>
0.6

> <PUBCHEM_CONFORMER_DIVERSEORDER>
3
2
1
4

> <PUBCHEM_MMFF94_PARTIAL_CHARGES>
10
1 -0.57
10 0.57
19 0.37
2 -0.57
20 0.37
3 -0.73
4 -0.73
5 0.36
8 0.36
9 0.57

> <PUBCHEM_EFFECTIVE_ROTOR_COUNT>
2.8

> <PUBCHEM_PHARMACOPHORE_FEATURES>
6
1 1 acceptor
1 2 acceptor
1 3 donor
1 4 donor
3 7 11 12 hydrophobe
6 3 4 5 8 9 10 rings

> <PUBCHEM_HEAVY_ATOM_COUNT>
13

> <PUBCHEM_ATOM_DEF_STEREO_COUNT>
2

> <PUBCHEM_ATOM_UDEF_STEREO_COUNT>
0

> <PUBCHEM_BOND_DEF_STEREO_COUNT>
0

> <PUBCHEM_BOND_UDEF_STEREO_COUNT>
0

> <PUBCHEM_ISOTOPIC_ATOM_COUNT>
0

> <PUBCHEM_COMPONENT_COUNT>
1

> <PUBCHEM_CACTVS_TAUTO_COUNT>
4

> <PUBCHEM_CONFORMER_ID>
00D3CA8A00000003

> <PUBCHEM_MMFF94_ENERGY>
46.0783

> <PUBCHEM_FEATURE_SELFOVERLAP>
30.455

> <PUBCHEM_SHAPE_FINGERPRINT>
108231 29 18338807813524681018
11206711 2 18335426703542357844
12032990 46 18339935869584396158
12897270 3 18334858324660382359
13380535 76 17836922678700289104
14128692 85 18060136565615960997
15757776 16 18412818084152273342
16945 1 18335421261612811777
18619055 16 18115863010425605495
193761 8 17833555587495812514
20201158 50 18334294262358092515
20645477 70 18200589332511135967
21061003 4 18337405931988675873
21501502 16 18050008796725011154
23402539 116 18341332202449793206
23552423 10 18336273391798922093
23559900 14 18410020953453942286
25 1 18116138988313312181
2748010 2 18048038767813499040
3312278 4 18336835190627027720
449060 23 17846227630656839188
5493415 88 18337112374957835571
6338986 31 18195787597227863599
81228 2 18052538768332550969
8809292 202 18042133209488951227

> <PUBCHEM_SHAPE_MULTIPOLES>
245.83
5.07
2.13
0.9
0.38
0.59
0.25
-1.76
1.12
-0.57
-0.51
0.58
-0.12
0.07

> <PUBCHEM_SHAPE_SELFOVERLAP>
488.763

> <PUBCHEM_SHAPE_VOLUME>
145.2

> <PUBCHEM_COORDINATE_TYPE>
2
5
10

$$$$
