16401639
  -OEChem-03112307333D

 95100  0     1  0  0  0  0  0999 V2000
   -1.0209   -0.3118    1.3134 O   0  0  0  0  0  0  0  0  0  0  0  0
    6.9874    1.8164   -1.8053 O   0  0  0  0  0  0  0  0  0  0  0  0
    4.9964    1.9150   -0.6999 O   0  0  0  0  0  0  0  0  0  0  0  0
   -0.3905    1.9289    1.4747 O   0  0  0  0  0  0  0  0  0  0  0  0
   -2.8302    0.3687   -0.7533 O   0  0  0  0  0  0  0  0  0  0  0  0
   -3.7599    3.1553   -0.5277 O   0  0  0  0  0  0  0  0  0  0  0  0
   -1.5127    4.9535   -0.2589 O   0  0  0  0  0  0  0  0  0  0  0  0
   -4.5402   -0.8512    0.2624 O   0  0  0  0  0  0  0  0  0  0  0  0
    1.7169    3.5777    2.1039 O   0  0  0  0  0  0  0  0  0  0  0  0
   -4.5597    0.9504   -2.9162 O   0  0  0  0  0  0  0  0  0  0  0  0
   -6.6160   -1.1298   -3.2704 O   0  0  0  0  0  0  0  0  0  0  0  0
   -7.9606   -1.6604   -0.7670 O   0  0  0  0  0  0  0  0  0  0  0  0
   -5.5440   -1.6101    2.7063 O   0  0  0  0  0  0  0  0  0  0  0  0
    2.4908   -1.2911    1.5441 C   0  0  2  0  0  0  0  0  0  0  0  0
    2.7693   -2.0379    0.1899 C   0  0  2  0  0  0  0  0  0  0  0  0
    3.7688   -1.3177   -0.8158 C   0  0  1  0  0  0  0  0  0  0  0  0
    5.0309   -0.8325   -0.0226 C   0  0  2  0  0  0  0  0  0  0  0  0
    1.4027   -0.2185    1.3891 C   0  0  0  0  0  0  0  0  0  0  0  0
    0.1600   -1.0726    1.1478 C   0  0  2  0  0  0  0  0  0  0  0  0
    3.7795   -0.7486    2.1684 C   0  0  0  0  0  0  0  0  0  0  0  0
    1.4639   -2.5582   -0.4779 C   0  0  0  0  0  0  0  0  0  0  0  0
    1.7866   -2.2470    2.5598 C   0  0  0  0  0  0  0  0  0  0  0  0
    4.6467    0.0340    1.1922 C   0  0  0  0  0  0  0  0  0  0  0  0
    6.1622   -0.2058   -0.9107 C   0  0  2  0  0  0  0  0  0  0  0  0
    4.2248   -2.3651   -1.8920 C   0  0  0  0  0  0  0  0  0  0  0  0
    0.2204   -1.6874   -0.2542 C   0  0  0  0  0  0  0  0  0  0  0  0
    0.3225   -2.1286    2.2144 C   0  0  0  0  0  0  0  0  0  0  0  0
    3.0889   -0.1513   -1.5712 C   0  0  0  0  0  0  0  0  0  0  0  0
    6.2503   -0.8851   -2.2984 C   0  0  0  0  0  0  0  0  0  0  0  0
    5.7036   -2.3040   -2.2804 C   0  0  0  0  0  0  0  0  0  0  0  0
    7.5254   -0.3581   -0.1998 C   0  0  0  0  0  0  0  0  0  0  0  0
    5.9569    1.2791   -1.1076 C   0  0  0  0  0  0  0  0  0  0  0  0
   -0.6530   -2.8278    2.8051 C   0  0  0  0  0  0  0  0  0  0  0  0
   -0.9502    0.9340    0.6206 C   0  0  2  0  0  0  0  0  0  0  0  0
   -2.3689    1.3219    0.2038 C   0  0  1  0  0  0  0  0  0  0  0  0
   -2.4043    2.7196   -0.4143 C   0  0  2  0  0  0  0  0  0  0  0  0
   -0.2687    3.1983    0.8308 C   0  0  1  0  0  0  0  0  0  0  0  0
   -1.6545    3.7286    0.4557 C   0  0  1  0  0  0  0  0  0  0  0  0
    0.4527    4.1354    1.7943 C   0  0  0  0  0  0  0  0  0  0  0  0
   -4.2434    0.1887   -0.6665 C   0  0  2  0  0  0  0  0  0  0  0  0
   -4.7580   -0.1739   -2.0595 C   0  0  1  0  0  0  0  0  0  0  0  0
   -6.2441   -0.5318   -2.0275 C   0  0  2  0  0  0  0  0  0  0  0  0
   -5.9444   -1.0655    0.4149 C   0  0  1  0  0  0  0  0  0  0  0  0
   -6.5487   -1.5315   -0.9118 C   0  0  1  0  0  0  0  0  0  0  0  0
   -6.1345   -2.1025    1.5172 C   0  0  0  0  0  0  0  0  0  0  0  0
    3.3142   -2.9488    0.4884 H   0  0  0  0  0  0  0  0  0  0  0  0
    5.4672   -1.7494    0.4067 H   0  0  0  0  0  0  0  0  0  0  0  0
    1.6172    0.4962    0.5991 H   0  0  0  0  0  0  0  0  0  0  0  0
    1.3122    0.3630    2.3180 H   0  0  0  0  0  0  0  0  0  0  0  0
    4.3703   -1.5863    2.5633 H   0  0  0  0  0  0  0  0  0  0  0  0
    3.5481   -0.1107    3.0311 H   0  0  0  0  0  0  0  0  0  0  0  0
    1.5943   -2.7402   -1.5498 H   0  0  0  0  0  0  0  0  0  0  0  0
    1.2512   -3.5498   -0.0539 H   0  0  0  0  0  0  0  0  0  0  0  0
    2.1484   -3.2769    2.4743 H   0  0  0  0  0  0  0  0  0  0  0  0
    1.9409   -1.9042    3.5905 H   0  0  0  0  0  0  0  0  0  0  0  0
    4.0665    0.9206    0.9375 H   0  0  0  0  0  0  0  0  0  0  0  0
    5.5416    0.3731    1.7246 H   0  0  0  0  0  0  0  0  0  0  0  0
    4.0301   -3.3892   -1.5489 H   0  0  0  0  0  0  0  0  0  0  0  0
    3.6209   -2.2492   -2.8017 H   0  0  0  0  0  0  0  0  0  0  0  0
    0.1966   -0.9202   -1.0332 H   0  0  0  0  0  0  0  0  0  0  0  0
   -0.6798   -2.2896   -0.4368 H   0  0  0  0  0  0  0  0  0  0  0  0
    2.8456    0.6962   -0.9341 H   0  0  0  0  0  0  0  0  0  0  0  0
    3.7120    0.2354   -2.3815 H   0  0  0  0  0  0  0  0  0  0  0  0
    2.1628   -0.4734   -2.0553 H   0  0  0  0  0  0  0  0  0  0  0  0
    5.7076   -0.3087   -3.0578 H   0  0  0  0  0  0  0  0  0  0  0  0
    7.2889   -0.9116   -2.6527 H   0  0  0  0  0  0  0  0  0  0  0  0
    5.8363   -2.7663   -3.2656 H   0  0  0  0  0  0  0  0  0  0  0  0
    6.2900   -2.9104   -1.5786 H   0  0  0  0  0  0  0  0  0  0  0  0
    8.3609   -0.0108   -0.8191 H   0  0  0  0  0  0  0  0  0  0  0  0
    7.5645    0.2172    0.7316 H   0  0  0  0  0  0  0  0  0  0  0  0
    7.7260   -1.4071    0.0457 H   0  0  0  0  0  0  0  0  0  0  0  0
   -1.6918   -2.6909    2.5255 H   0  0  0  0  0  0  0  0  0  0  0  0
   -0.4284   -3.5548    3.5781 H   0  0  0  0  0  0  0  0  0  0  0  0
   -0.3507    0.8638   -0.2933 H   0  0  0  0  0  0  0  0  0  0  0  0
   -3.0070    1.2878    1.0992 H   0  0  0  0  0  0  0  0  0  0  0  0
    6.8719    2.7804   -1.9449 H   0  0  0  0  0  0  0  0  0  0  0  0
   -2.0020    2.7027   -1.4341 H   0  0  0  0  0  0  0  0  0  0  0  0
    0.3628    3.0786   -0.0602 H   0  0  0  0  0  0  0  0  0  0  0  0
   -2.2382    3.9430    1.3594 H   0  0  0  0  0  0  0  0  0  0  0  0
   -0.1052    4.2364    2.7312 H   0  0  0  0  0  0  0  0  0  0  0  0
    0.6038    5.1257    1.3542 H   0  0  0  0  0  0  0  0  0  0  0  0
   -4.7438    1.1008   -0.3290 H   0  0  0  0  0  0  0  0  0  0  0  0
   -4.1331    3.2196    0.3680 H   0  0  0  0  0  0  0  0  0  0  0  0
   -0.9847    4.7767   -1.0562 H   0  0  0  0  0  0  0  0  0  0  0  0
   -4.1731   -1.0000   -2.4811 H   0  0  0  0  0  0  0  0  0  0  0  0
   -6.8616    0.3683   -1.9252 H   0  0  0  0  0  0  0  0  0  0  0  0
    2.1562    4.1869    2.7214 H   0  0  0  0  0  0  0  0  0  0  0  0
   -6.4066   -0.1272    0.7509 H   0  0  0  0  0  0  0  0  0  0  0  0
   -6.1564   -2.5189   -1.1846 H   0  0  0  0  0  0  0  0  0  0  0  0
   -5.0620    1.6994   -2.5521 H   0  0  0  0  0  0  0  0  0  0  0  0
   -7.1942   -2.2987    1.7063 H   0  0  0  0  0  0  0  0  0  0  0  0
   -5.6324   -3.0413    1.2601 H   0  0  0  0  0  0  0  0  0  0  0  0
   -6.0707   -1.9246   -3.3989 H   0  0  0  0  0  0  0  0  0  0  0  0
   -8.3169   -0.7924   -0.5117 H   0  0  0  0  0  0  0  0  0  0  0  0
   -5.6711   -2.2878    3.3920 H   0  0  0  0  0  0  0  0  0  0  0  0
  1 19  1  0  0  0  0
  1 34  1  0  0  0  0
  2 32  1  0  0  0  0
  2 76  1  0  0  0  0
  3 32  2  0  0  0  0
  4 34  1  0  0  0  0
  4 37  1  0  0  0  0
  5 35  1  0  0  0  0
  5 40  1  0  0  0  0
  6 36  1  0  0  0  0
  6 83  1  0  0  0  0
  7 38  1  0  0  0  0
  7 84  1  0  0  0  0
  8 40  1  0  0  0  0
  8 43  1  0  0  0  0
  9 39  1  0  0  0  0
  9 87  1  0  0  0  0
 10 41  1  0  0  0  0
 10 90  1  0  0  0  0
 11 42  1  0  0  0  0
 11 93  1  0  0  0  0
 12 44  1  0  0  0  0
 12 94  1  0  0  0  0
 13 45  1  0  0  0  0
 13 95  1  0  0  0  0
 14 15  1  0  0  0  0
 14 18  1  0  0  0  0
 14 20  1  0  0  0  0
 14 22  1  0  0  0  0
 15 16  1  0  0  0  0
 15 21  1  0  0  0  0
 15 46  1  0  0  0  0
 16 17  1  0  0  0  0
 16 25  1  0  0  0  0
 16 28  1  0  0  0  0
 17 23  1  0  0  0  0
 17 24  1  0  0  0  0
 17 47  1  0  0  0  0
 18 19  1  0  0  0  0
 18 48  1  0  0  0  0
 18 49  1  0  0  0  0
 19 26  1  0  0  0  0
 19 27  1  0  0  0  0
 20 23  1  0  0  0  0
 20 50  1  0  0  0  0
 20 51  1  0  0  0  0
 21 26  1  0  0  0  0
 21 52  1  0  0  0  0
 21 53  1  0  0  0  0
 22 27  1  0  0  0  0
 22 54  1  0  0  0  0
 22 55  1  0  0  0  0
 23 56  1  0  0  0  0
 23 57  1  0  0  0  0
 24 29  1  0  0  0  0
 24 31  1  0  0  0  0
 24 32  1  0  0  0  0
 25 30  1  0  0  0  0
 25 58  1  0  0  0  0
 25 59  1  0  0  0  0
 26 60  1  0  0  0  0
 26 61  1  0  0  0  0
 27 33  2  0  0  0  0
 28 62  1  0  0  0  0
 28 63  1  0  0  0  0
 28 64  1  0  0  0  0
 29 30  1  0  0  0  0
 29 65  1  0  0  0  0
 29 66  1  0  0  0  0
 30 67  1  0  0  0  0
 30 68  1  0  0  0  0
 31 69  1  0  0  0  0
 31 70  1  0  0  0  0
 31 71  1  0  0  0  0
 33 72  1  0  0  0  0
 33 73  1  0  0  0  0
 34 35  1  0  0  0  0
 34 74  1  0  0  0  0
 35 36  1  0  0  0  0
 35 75  1  0  0  0  0
 36 38  1  0  0  0  0
 36 77  1  0  0  0  0
 37 38  1  0  0  0  0
 37 39  1  0  0  0  0
 37 78  1  0  0  0  0
 38 79  1  0  0  0  0
 39 80  1  0  0  0  0
 39 81  1  0  0  0  0
 40 41  1  0  0  0  0
 40 82  1  0  0  0  0
 41 42  1  0  0  0  0
 41 85  1  0  0  0  0
 42 44  1  0  0  0  0
 42 86  1  0  0  0  0
 43 44  1  0  0  0  0
 43 45  1  0  0  0  0
 43 88  1  0  0  0  0
 44 89  1  0  0  0  0
 45 91  1  0  0  0  0
 45 92  1  0  0  0  0
M  END
> <PUBCHEM_COMPOUND_CID>
16401639

> <PUBCHEM_CONFORMER_RMSD>
1.2

> <PUBCHEM_CONFORMER_DIVERSEORDER>
1
20
36
26
17
31
47
3
37
35
19
45
46
30
27
12
16
40
38
39
44
24
49
50
42
34
28
23
11
9
29
25
43
7
4
10
48
33
2
14
21
6
18
8
13
51
15
22
5
41
32

> <PUBCHEM_MMFF94_PARTIAL_CHARGES>
41
1 -0.56
10 -0.68
11 -0.68
12 -0.68
13 -0.68
19 0.42
2 -0.65
22 0.14
24 0.06
27 -0.28
3 -0.57
32 0.66
33 -0.3
34 0.56
35 0.28
36 0.28
37 0.28
38 0.28
39 0.28
4 -0.56
40 0.56
41 0.28
42 0.28
43 0.28
44 0.28
45 0.28
5 -0.56
6 -0.68
7 -0.68
72 0.15
73 0.15
76 0.5
8 -0.56
83 0.4
84 0.4
87 0.4
9 -0.68
90 0.4
93 0.4
94 0.4
95 0.4

> <PUBCHEM_EFFECTIVE_ROTOR_COUNT>
11.4

> <PUBCHEM_PHARMACOPHORE_FEATURES>
26
1 1 acceptor
1 10 acceptor
1 10 donor
1 11 acceptor
1 11 donor
1 12 acceptor
1 12 donor
1 13 acceptor
1 13 donor
1 2 acceptor
1 3 acceptor
1 4 acceptor
1 5 acceptor
1 6 acceptor
1 6 donor
1 7 acceptor
1 7 donor
1 8 acceptor
1 9 acceptor
1 9 donor
3 2 3 32 anion
6 14 15 16 17 20 23 rings
6 16 17 24 25 29 30 rings
6 4 34 35 36 37 38 rings
6 8 40 41 42 43 44 rings
8 14 15 18 19 21 22 26 27 rings

> <PUBCHEM_HEAVY_ATOM_COUNT>
45

> <PUBCHEM_ATOM_DEF_STEREO_COUNT>
16

> <PUBCHEM_ATOM_UDEF_STEREO_COUNT>
0

> <PUBCHEM_BOND_DEF_STEREO_COUNT>
0

> <PUBCHEM_BOND_UDEF_STEREO_COUNT>
0

> <PUBCHEM_ISOTOPIC_ATOM_COUNT>
0

> <PUBCHEM_COMPONENT_COUNT>
1

> <PUBCHEM_CACTVS_TAUTO_COUNT>
1

> <PUBCHEM_CONFORMER_ID>
00FA44E700000001

> <PUBCHEM_MMFF94_ENERGY>
177.8629

> <PUBCHEM_FEATURE_SELFOVERLAP>
132.182

> <PUBCHEM_SHAPE_FINGERPRINT>
10169797 241 18340472461170437881
10462674 369 17822580512074000619
10794284 68 17986700141517453377
10928967 22 16772930524756363799
11672396 43 18261950731590410930
12107183 9 10663814195906160867
12422481 6 10592041349710263024
12788726 201 18334295344547479026
1361 2 17916860352578959144
13690498 29 18271517620712342357
13782708 43 17274816905311648990
13811026 1 18409730664734815478
13911987 19 18259701203434233547
14040221 97 17464275081439819348
14415361 349 17273109488608244295
14767858 380 18333726918489317785
14932701 244 18337965492938860229
15320295 40 18187916267337718900
15361156 5 18412543181425156205
15669420 48 17917988404596544444
17909252 39 17702663242757752144
20511986 3 14562794535890780183
20775438 99 17771038765074275854
22122407 14 13985248633997890070
22440779 20 16486971739949059105
23522609 53 16700920312623156082
24771750 20 17833274494629351541
249057 25 17896312520423119098
3117164 225 8574413319354113494
354706 132 17968666999511728132
3886686 26 8904172409033628038
4258327 124 16444778114672553310
437795 51 18265051504028659201
44344687 77 18339932610025848609
5171179 24 17831588939256930299
57527295 17 18052557478228561086
5912855 24 18194686960745820539
6058803 2 17684356270448261369
6086070 43 14996869700454158598
6669772 16 17982720072063850848
77296 10 16443062785785359163
86090 222 18265315382609092785

> <PUBCHEM_SHAPE_MULTIPOLES>
849.78
18.44
4.39
2.92
6.9
5.94
0.12
-7.87
13.29
1.63
-1.75
0.91
-1.42
0.79

> <PUBCHEM_SHAPE_SELFOVERLAP>
1817.135

> <PUBCHEM_SHAPE_VOLUME>
463.4

> <PUBCHEM_COORDINATE_TYPE>
2
5
10

$$$$
