21593623
  -OEChem-03112307302D

116122  0     1  0  0  0  0  0999 V2000
    8.5991   -0.5725    0.0000 O   0  0  0  0  0  0  0  0  0  0  0  0
   11.8999    6.2775    0.0000 O   0  0  0  0  0  0  0  0  0  0  0  0
   10.2098    6.6564    0.0000 O   0  0  0  0  0  0  0  0  0  0  0  0
    6.8671   -0.5725    0.0000 O   0  0  0  0  0  0  0  0  0  0  0  0
    8.5991   -2.5725    0.0000 O   0  0  0  0  0  0  0  0  0  0  0  0
    6.8671   -3.5725    0.0000 O   0  0  0  0  0  0  0  0  0  0  0  0
    5.1350   -2.5725    0.0000 O   0  0  0  0  0  0  0  0  0  0  0  0
    9.4651   -1.0725    0.0000 O   0  0  0  0  0  0  0  0  0  0  0  0
    5.1350    0.4275    0.0000 O   0  0  0  0  0  0  0  0  0  0  0  0
    5.1350   -3.5725    0.0000 O   0  0  0  0  0  0  0  0  0  0  0  0
   10.3312   -3.5725    0.0000 O   0  0  0  0  0  0  0  0  0  0  0  0
    6.8671   -5.5725    0.0000 O   0  0  0  0  0  0  0  0  0  0  0  0
   12.0632   -2.5725    0.0000 O   0  0  0  0  0  0  0  0  0  0  0  0
   12.0632   -0.5725    0.0000 O   0  0  0  0  0  0  0  0  0  0  0  0
    5.1350   -6.5725    0.0000 O   0  0  0  0  0  0  0  0  0  0  0  0
    3.4030   -5.5725    0.0000 O   0  0  0  0  0  0  0  0  0  0  0  0
   11.1972    0.9275    0.0000 O   0  0  0  0  0  0  0  0  0  0  0  0
    2.5369   -4.0725    0.0000 O   0  0  0  0  0  0  0  0  0  0  0  0
    8.5991    2.6745    0.0000 C   0  0  2  0  0  0  0  0  0  0  0  0
    9.5740    2.4520    0.0000 C   0  0  2  0  0  0  0  0  0  0  0  0
   10.2942    3.2045    0.0000 C   0  0  1  0  0  0  0  0  0  0  0  0
    9.9949    4.2022    0.0000 C   0  0  2  0  0  0  0  0  0  0  0  0
    8.9651    1.5510    0.0000 C   0  0  0  0  0  0  0  0  0  0  0  0
    8.5991    0.4275    0.0000 C   0  0  2  0  0  0  0  0  0  0  0  0
    8.2768    3.6650    0.0000 C   0  0  0  0  0  0  0  0  0  0  0  0
   10.0079    1.5510    0.0000 C   0  0  0  0  0  0  0  0  0  0  0  0
    7.8173    2.0510    0.0000 C   0  0  0  0  0  0  0  0  0  0  0  0
    8.9794    4.4340    0.0000 C   0  0  0  0  0  0  0  0  0  0  0  0
   10.7267    5.0033    0.0000 C   0  0  2  0  0  0  0  0  0  0  0  0
   11.3461    2.9387    0.0000 C   0  0  0  0  0  0  0  0  0  0  0  0
    9.5740    0.6501    0.0000 C   0  0  0  0  0  0  0  0  0  0  0  0
    7.8173    1.0510    0.0000 C   0  0  0  0  0  0  0  0  0  0  0  0
   10.8919    2.4028    0.0000 C   0  0  0  0  0  0  0  0  0  0  0  0
   11.7845    4.7618    0.0000 C   0  0  0  0  0  0  0  0  0  0  0  0
   12.0963    3.7226    0.0000 C   0  0  0  0  0  0  0  0  0  0  0  0
    9.9910    5.6806    0.0000 C   0  0  0  0  0  0  0  0  0  0  0  0
   10.9455    5.9790    0.0000 C   0  0  0  0  0  0  0  0  0  0  0  0
    6.9163    0.6171    0.0000 C   0  0  0  0  0  0  0  0  0  0  0  0
    7.7331   -1.0725    0.0000 C   0  0  2  0  0  0  0  0  0  0  0  0
    7.7331   -2.0725    0.0000 C   0  0  1  0  0  0  0  0  0  0  0  0
    6.8671   -2.5725    0.0000 C   0  0  2  0  0  0  0  0  0  0  0  0
    6.0010   -1.0725    0.0000 C   0  0  1  0  0  0  0  0  0  0  0  0
    6.0010   -2.0725    0.0000 C   0  0  1  0  0  0  0  0  0  0  0  0
    5.1350   -0.5725    0.0000 C   0  0  0  0  0  0  0  0  0  0  0  0
    9.4651   -2.0725    0.0000 C   0  0  2  0  0  0  0  0  0  0  0  0
    6.0010   -4.0725    0.0000 C   0  0  2  0  0  0  0  0  0  0  0  0
   10.3312   -2.5725    0.0000 C   0  0  1  0  0  0  0  0  0  0  0  0
    6.0010   -5.0725    0.0000 C   0  0  1  0  0  0  0  0  0  0  0  0
   11.1972   -2.0725    0.0000 C   0  0  2  0  0  0  0  0  0  0  0  0
   10.3312   -0.5725    0.0000 C   0  0  1  0  0  0  0  0  0  0  0  0
   11.1972   -1.0725    0.0000 C   0  0  1  0  0  0  0  0  0  0  0  0
    5.1350   -5.5725    0.0000 C   0  0  2  0  0  0  0  0  0  0  0  0
    4.2690   -4.0725    0.0000 C   0  0  1  0  0  0  0  0  0  0  0  0
    4.2690   -5.0725    0.0000 C   0  0  1  0  0  0  0  0  0  0  0  0
   10.3312    0.4275    0.0000 C   0  0  0  0  0  0  0  0  0  0  0  0
    3.4030   -3.5725    0.0000 C   0  0  0  0  0  0  0  0  0  0  0  0
   10.4027    2.2628    0.0000 H   0  0  0  0  0  0  0  0  0  0  0  0
    9.7412    5.0135    0.0000 H   0  0  0  0  0  0  0  0  0  0  0  0
    9.4666    1.1865    0.0000 H   0  0  0  0  0  0  0  0  0  0  0  0
    9.4666    1.9156    0.0000 H   0  0  0  0  0  0  0  0  0  0  0  0
    7.8974    4.1554    0.0000 H   0  0  0  0  0  0  0  0  0  0  0  0
    7.7287    3.3751    0.0000 H   0  0  0  0  0  0  0  0  0  0  0  0
   10.4927    1.1645    0.0000 H   0  0  0  0  0  0  0  0  0  0  0  0
   10.4927    1.9376    0.0000 H   0  0  0  0  0  0  0  0  0  0  0  0
    7.5483    2.6096    0.0000 H   0  0  0  0  0  0  0  0  0  0  0  0
    7.2128    1.9131    0.0000 H   0  0  0  0  0  0  0  0  0  0  0  0
    9.2187    5.0060    0.0000 H   0  0  0  0  0  0  0  0  0  0  0  0
    8.4568    4.7677    0.0000 H   0  0  0  0  0  0  0  0  0  0  0  0
   11.0936    2.3725    0.0000 H   0  0  0  0  0  0  0  0  0  0  0  0
   11.8608    2.5930    0.0000 H   0  0  0  0  0  0  0  0  0  0  0  0
    9.5740    0.0301    0.0000 H   0  0  0  0  0  0  0  0  0  0  0  0
   10.1785    0.5121    0.0000 H   0  0  0  0  0  0  0  0  0  0  0  0
   10.3948    2.0322    0.0000 H   0  0  0  0  0  0  0  0  0  0  0  0
   11.2624    1.9057    0.0000 H   0  0  0  0  0  0  0  0  0  0  0  0
   11.3890    2.7733    0.0000 H   0  0  0  0  0  0  0  0  0  0  0  0
   12.4001    4.8358    0.0000 H   0  0  0  0  0  0  0  0  0  0  0  0
   11.8170    5.3810    0.0000 H   0  0  0  0  0  0  0  0  0  0  0  0
   12.4643    3.2236    0.0000 H   0  0  0  0  0  0  0  0  0  0  0  0
   12.6509    3.9998    0.0000 H   0  0  0  0  0  0  0  0  0  0  0  0
   10.4110    6.1367    0.0000 H   0  0  0  0  0  0  0  0  0  0  0  0
    9.5349    6.1006    0.0000 H   0  0  0  0  0  0  0  0  0  0  0  0
    9.5711    5.2245    0.0000 H   0  0  0  0  0  0  0  0  0  0  0  0
    6.4040    0.9664    0.0000 H   0  0  0  0  0  0  0  0  0  0  0  0
    6.8700   -0.0011    0.0000 H   0  0  0  0  0  0  0  0  0  0  0  0
    7.7331   -0.4525    0.0000 H   0  0  0  0  0  0  0  0  0  0  0  0
    7.7331   -2.6925    0.0000 H   0  0  0  0  0  0  0  0  0  0  0  0
   12.0355    6.8825    0.0000 H   0  0  0  0  0  0  0  0  0  0  0  0
    6.3301   -2.8825    0.0000 H   0  0  0  0  0  0  0  0  0  0  0  0
    6.0010   -0.4525    0.0000 H   0  0  0  0  0  0  0  0  0  0  0  0
    5.4641   -1.7625    0.0000 H   0  0  0  0  0  0  0  0  0  0  0  0
    4.5244   -0.4648    0.0000 H   0  0  0  0  0  0  0  0  0  0  0  0
    4.9230   -1.1551    0.0000 H   0  0  0  0  0  0  0  0  0  0  0  0
    9.4651   -2.6925    0.0000 H   0  0  0  0  0  0  0  0  0  0  0  0
    4.5981   -2.2625    0.0000 H   0  0  0  0  0  0  0  0  0  0  0  0
    6.5380   -4.3825    0.0000 H   0  0  0  0  0  0  0  0  0  0  0  0
   10.8681   -2.8825    0.0000 H   0  0  0  0  0  0  0  0  0  0  0  0
    6.0010   -5.6925    0.0000 H   0  0  0  0  0  0  0  0  0  0  0  0
   11.1972   -2.6925    0.0000 H   0  0  0  0  0  0  0  0  0  0  0  0
    4.5981    0.7375    0.0000 H   0  0  0  0  0  0  0  0  0  0  0  0
    9.7942   -0.2625    0.0000 H   0  0  0  0  0  0  0  0  0  0  0  0
   11.7341   -1.3825    0.0000 H   0  0  0  0  0  0  0  0  0  0  0  0
    4.5981   -5.8825    0.0000 H   0  0  0  0  0  0  0  0  0  0  0  0
    4.2690   -3.4525    0.0000 H   0  0  0  0  0  0  0  0  0  0  0  0
    4.2690   -5.6925    0.0000 H   0  0  0  0  0  0  0  0  0  0  0  0
   10.8681   -3.8825    0.0000 H   0  0  0  0  0  0  0  0  0  0  0  0
   10.1191    1.0102    0.0000 H   0  0  0  0  0  0  0  0  0  0  0  0
    9.7206    0.3199    0.0000 H   0  0  0  0  0  0  0  0  0  0  0  0
    7.4040   -5.2625    0.0000 H   0  0  0  0  0  0  0  0  0  0  0  0
   12.6002   -2.2625    0.0000 H   0  0  0  0  0  0  0  0  0  0  0  0
    3.8015   -3.0975    0.0000 H   0  0  0  0  0  0  0  0  0  0  0  0
    3.0044   -3.0975    0.0000 H   0  0  0  0  0  0  0  0  0  0  0  0
   12.0632    0.0475    0.0000 H   0  0  0  0  0  0  0  0  0  0  0  0
    4.5981   -6.8825    0.0000 H   0  0  0  0  0  0  0  0  0  0  0  0
    3.4030   -6.1925    0.0000 H   0  0  0  0  0  0  0  0  0  0  0  0
   11.1972    1.5475    0.0000 H   0  0  0  0  0  0  0  0  0  0  0  0
    2.0000   -3.7625    0.0000 H   0  0  0  0  0  0  0  0  0  0  0  0
 24  1  1  6  0  0  0
 39  1  1  1  0  0  0
  2 37  1  0  0  0  0
  2 87  1  0  0  0  0
  3 37  2  0  0  0  0
  4 39  1  0  0  0  0
  4 42  1  0  0  0  0
 40  5  1  6  0  0  0
 45  5  1  6  0  0  0
 41  6  1  1  0  0  0
 46  6  1  1  0  0  0
 43  7  1  6  0  0  0
  7 94  1  0  0  0  0
  8 45  1  0  0  0  0
  8 50  1  0  0  0  0
  9 44  1  0  0  0  0
  9 99  1  0  0  0  0
 10 46  1  0  0  0  0
 10 53  1  0  0  0  0
 47 11  1  1  0  0  0
 11105  1  0  0  0  0
 48 12  1  6  0  0  0
 12108  1  0  0  0  0
 49 13  1  6  0  0  0
 13109  1  0  0  0  0
 51 14  1  1  0  0  0
 14112  1  0  0  0  0
 52 15  1  1  0  0  0
 15113  1  0  0  0  0
 54 16  1  6  0  0  0
 16114  1  0  0  0  0
 17 55  1  0  0  0  0
 17115  1  0  0  0  0
 18 56  1  0  0  0  0
 18116  1  0  0  0  0
 19 20  1  0  0  0  0
 19 23  1  0  0  0  0
 19 25  1  6  0  0  0
 19 27  1  0  0  0  0
 20 21  1  0  0  0  0
 20 26  1  0  0  0  0
 20 57  1  1  0  0  0
 21 22  1  0  0  0  0
 21 30  1  0  0  0  0
 21 33  1  6  0  0  0
 22 28  1  0  0  0  0
 22 29  1  0  0  0  0
 22 58  1  1  0  0  0
 23 24  1  0  0  0  0
 23 59  1  0  0  0  0
 23 60  1  0  0  0  0
 24 31  1  0  0  0  0
 24 32  1  0  0  0  0
 25 28  1  0  0  0  0
 25 61  1  0  0  0  0
 25 62  1  0  0  0  0
 26 31  1  0  0  0  0
 26 63  1  0  0  0  0
 26 64  1  0  0  0  0
 27 32  1  0  0  0  0
 27 65  1  0  0  0  0
 27 66  1  0  0  0  0
 28 67  1  0  0  0  0
 28 68  1  0  0  0  0
 29 34  1  0  0  0  0
 29 36  1  1  0  0  0
 29 37  1  0  0  0  0
 30 35  1  0  0  0  0
 30 69  1  0  0  0  0
 30 70  1  0  0  0  0
 31 71  1  0  0  0  0
 31 72  1  0  0  0  0
 32 38  2  0  0  0  0
 33 73  1  0  0  0  0
 33 74  1  0  0  0  0
 33 75  1  0  0  0  0
 34 35  1  0  0  0  0
 34 76  1  0  0  0  0
 34 77  1  0  0  0  0
 35 78  1  0  0  0  0
 35 79  1  0  0  0  0
 36 80  1  0  0  0  0
 36 81  1  0  0  0  0
 36 82  1  0  0  0  0
 38 83  1  0  0  0  0
 38 84  1  0  0  0  0
 39 40  1  0  0  0  0
 39 85  1  0  0  0  0
 40 41  1  0  0  0  0
 40 86  1  0  0  0  0
 41 43  1  0  0  0  0
 41 88  1  0  0  0  0
 42 43  1  0  0  0  0
 42 44  1  1  0  0  0
 42 89  1  0  0  0  0
 43 90  1  0  0  0  0
 44 91  1  0  0  0  0
 44 92  1  0  0  0  0
 45 47  1  0  0  0  0
 45 93  1  0  0  0  0
 46 48  1  0  0  0  0
 46 95  1  0  0  0  0
 47 49  1  0  0  0  0
 47 96  1  0  0  0  0
 48 52  1  0  0  0  0
 48 97  1  0  0  0  0
 49 51  1  0  0  0  0
 49 98  1  0  0  0  0
 50 51  1  0  0  0  0
 50 55  1  6  0  0  0
 50100  1  0  0  0  0
 51101  1  0  0  0  0
 52 54  1  0  0  0  0
 52102  1  0  0  0  0
 53 54  1  0  0  0  0
 53 56  1  1  0  0  0
 53103  1  0  0  0  0
 54104  1  0  0  0  0
 55106  1  0  0  0  0
 55107  1  0  0  0  0
 56110  1  0  0  0  0
 56111  1  0  0  0  0
M  END
> <PUBCHEM_COMPOUND_CID>
21593623

> <PUBCHEM_COMPOUND_CANONICALIZED>
1

> <PUBCHEM_CACTVS_COMPLEXITY>
1450

> <PUBCHEM_CACTVS_HBOND_ACCEPTOR>
18

> <PUBCHEM_CACTVS_HBOND_DONOR>
11

> <PUBCHEM_CACTVS_ROTATABLE_BOND>
10

> <PUBCHEM_CACTVS_SUBSKEYS>
AAADcfB8PgAAAAAAAAAAAAAAAAAAAYAAAAA0aNECBgAAAADAAAAAGgAACAAAD1SwgAMCCAAABgCIAgDSCAAAAAAgAAAAAAEAAAgRFBIAIQAiQAAFgAAHIAHI6PyPgAAAAAAAAADAAAYAACAAAYAAAAAAAA==

> <PUBCHEM_IUPAC_OPENEYE_NAME>
(1R,4S,5R,9S,10R,13S)-13-[(2S,3R,4S,5R,6R)-5-hydroxy-6-(hydroxymethyl)-3,4-bis[[(2S,3R,4S,5S,6R)-3,4,5-trihydroxy-6-(hydroxymethyl)tetrahydropyran-2-yl]oxy]tetrahydropyran-2-yl]oxy-5,9-dimethyl-14-methylene-tetracyclo[11.2.1.01,10.04,9]hexadecane-5-carboxylic acid

> <PUBCHEM_IUPAC_CAS_NAME>
(1R,4S,5R,9S,10R,13S)-13-[[(2S,3R,4S,5R,6R)-5-hydroxy-6-(hydroxymethyl)-3,4-bis[[(2S,3R,4S,5S,6R)-3,4,5-trihydroxy-6-(hydroxymethyl)-2-oxanyl]oxy]-2-oxanyl]oxy]-5,9-dimethyl-14-methylene-5-tetracyclo[11.2.1.01,10.04,9]hexadecanecarboxylic acid

> <PUBCHEM_IUPAC_NAME_MARKUP>
(1<I>R</I>,4<I>S</I>,5<I>R</I>,9<I>S</I>,10<I>R</I>,13<I>S</I>)-13-[(2<I>S</I>,3<I>R</I>,4<I>S</I>,5<I>R</I>,6<I>R</I>)-5-hydroxy-6-(hydroxymethyl)-3,4-bis[[(2<I>S</I>,3<I>R</I>,4<I>S</I>,5<I>S</I>,6<I>R</I>)-3,4,5-trihydroxy-6-(hydroxymethyl)oxan-2-yl]oxy]oxan-2-yl]oxy-5,9-dimethyl-14-methylidenetetracyclo[11.2.1.0<SUP>1,10</SUP>.0<SUP>4,9</SUP>]hexadecane-5-carboxylic acid

> <PUBCHEM_IUPAC_NAME>
(1R,4S,5R,9S,10R,13S)-13-[(2S,3R,4S,5R,6R)-5-hydroxy-6-(hydroxymethyl)-3,4-bis[[(2S,3R,4S,5S,6R)-3,4,5-trihydroxy-6-(hydroxymethyl)oxan-2-yl]oxy]oxan-2-yl]oxy-5,9-dimethyl-14-methylidenetetracyclo[11.2.1.01,10.04,9]hexadecane-5-carboxylic acid

> <PUBCHEM_IUPAC_SYSTEMATIC_NAME>
(1R,4S,5R,9S,10R,13S)-13-[(2S,3R,4S,5R,6R)-6-(hydroxymethyl)-3,4-bis[[(2S,3R,4S,5S,6R)-6-(hydroxymethyl)-3,4,5-tris(oxidanyl)oxan-2-yl]oxy]-5-oxidanyl-oxan-2-yl]oxy-5,9-dimethyl-14-methylidene-tetracyclo[11.2.1.01,10.04,9]hexadecane-5-carboxylic acid

> <PUBCHEM_IUPAC_TRADITIONAL_NAME>
(1R,4S,5R,9S,10R,13S)-13-[(2S,3R,4S,5R,6R)-5-hydroxy-6-methylol-3,4-bis[[(2S,3R,4S,5S,6R)-3,4,5-trihydroxy-6-methylol-tetrahydropyran-2-yl]oxy]tetrahydropyran-2-yl]oxy-5,9-dimethyl-14-methylene-tetracyclo[11.2.1.01,10.04,9]hexadecane-5-carboxylic acid

> <PUBCHEM_IUPAC_INCHI>
InChI=1S/C38H60O18/c1-16-11-37-9-5-20-35(2,7-4-8-36(20,3)34(49)50)21(37)6-10-38(16,15-37)56-33-30(55-32-28(48)26(46)23(43)18(13-40)52-32)29(24(44)19(14-41)53-33)54-31-27(47)25(45)22(42)17(12-39)51-31/h17-33,39-48H,1,4-15H2,2-3H3,(H,49,50)/t17-,18-,19-,20+,21+,22-,23-,24-,25+,26+,27-,28-,29+,30-,31+,32+,33+,35-,36-,37-,38+/m1/s1

> <PUBCHEM_IUPAC_INCHIKEY>
DRSKVOAJKLUMCL-MMUIXFKXSA-N

> <PUBCHEM_XLOGP3_AA>
-1

> <PUBCHEM_EXACT_MASS>
804.37796506

> <PUBCHEM_MOLECULAR_FORMULA>
C38H60O18

> <PUBCHEM_MOLECULAR_WEIGHT>
804.9

> <PUBCHEM_OPENEYE_CAN_SMILES>
CC12CCCC(C1CCC34C2CCC(C3)(C(=C)C4)OC5C(C(C(C(O5)CO)O)OC6C(C(C(C(O6)CO)O)O)O)OC7C(C(C(C(O7)CO)O)O)O)(C)C(=O)O

> <PUBCHEM_OPENEYE_ISO_SMILES>
C[C@@]12CCC[C@@]([C@H]1CC[C@]34[C@H]2CC[C@](C3)(C(=C)C4)O[C@H]5[C@@H]([C@H]([C@@H]([C@H](O5)CO)O)O[C@H]6[C@@H]([C@H]([C@@H]([C@H](O6)CO)O)O)O)O[C@H]7[C@@H]([C@H]([C@@H]([C@H](O7)CO)O)O)O)(C)C(=O)O

> <PUBCHEM_CACTVS_TPSA>
295

> <PUBCHEM_MONOISOTOPIC_WEIGHT>
804.37796506

> <PUBCHEM_TOTAL_CHARGE>
0

> <PUBCHEM_HEAVY_ATOM_COUNT>
56

> <PUBCHEM_ATOM_DEF_STEREO_COUNT>
21

> <PUBCHEM_ATOM_UDEF_STEREO_COUNT>
0

> <PUBCHEM_BOND_DEF_STEREO_COUNT>
0

> <PUBCHEM_BOND_UDEF_STEREO_COUNT>
0

> <PUBCHEM_ISOTOPIC_ATOM_COUNT>
0

> <PUBCHEM_COMPONENT_COUNT>
1

> <PUBCHEM_CACTVS_TAUTO_COUNT>
1

> <PUBCHEM_COORDINATE_TYPE>
1
5
255

> <PUBCHEM_BONDANNOTATIONS>
24  1  6
39  1  5
47  11  5
48  12  6
49  13  6
51  14  5
52  15  5
54  16  6
19  25  6
20  57  5
21  33  6
22  58  5
29  36  5
42  44  5
40  5  6
45  5  6
50  55  6
53  56  5
41  6  5
46  6  5
43  7  6

$$$$
