22890058
  -OEChem-03102309083D

 29 30  0     1  0  0  0  0  0999 V2000
    2.6764    1.1512   -1.2467 O   0  0  0  0  0  0  0  0  0  0  0  0
    0.1283   -2.3817   -0.0511 O   0  0  0  0  0  0  0  0  0  0  0  0
    2.8956   -1.4892   -0.0009 O   0  0  0  0  0  0  0  0  0  0  0  0
   -1.5369    0.1237    0.0156 N   0  0  0  0  0  0  0  0  0  0  0  0
   -0.1823    0.0234    0.0236 C   0  0  0  0  0  0  0  0  0  0  0  0
   -2.4457   -1.0166   -0.0283 C   0  0  0  0  0  0  0  0  0  0  0  0
   -2.2681    1.3855    0.0501 C   0  0  0  0  0  0  0  0  0  0  0  0
    0.6432    1.2841    0.0875 C   0  0  0  0  0  0  0  0  0  0  0  0
    2.1016    0.8109    0.0037 C   0  0  1  0  0  0  0  0  0  0  0  0
   -3.8109   -0.4136    0.2881 C   0  0  0  0  0  0  0  0  0  0  0  0
   -3.7034    0.9903   -0.2836 C   0  0  0  0  0  0  0  0  0  0  0  0
    0.5563   -1.0927   -0.0057 C   0  0  0  0  0  0  0  0  0  0  0  0
    1.9697   -0.6922    0.0108 C   0  0  0  0  0  0  0  0  0  0  0  0
    2.9764    1.3169    1.1371 C   0  0  0  0  0  0  0  0  0  0  0  0
    0.4031    1.9566   -0.7435 H   0  0  0  0  0  0  0  0  0  0  0  0
    0.4454    1.8060    1.0312 H   0  0  0  0  0  0  0  0  0  0  0  0
   -2.2039   -1.7838    0.7144 H   0  0  0  0  0  0  0  0  0  0  0  0
   -2.4433   -1.4629   -1.0292 H   0  0  0  0  0  0  0  0  0  0  0  0
   -1.8997    2.1132   -0.6800 H   0  0  0  0  0  0  0  0  0  0  0  0
   -2.2126    1.8229    1.0535 H   0  0  0  0  0  0  0  0  0  0  0  0
   -3.9593   -0.3640    1.3737 H   0  0  0  0  0  0  0  0  0  0  0  0
   -4.6339   -0.9888   -0.1448 H   0  0  0  0  0  0  0  0  0  0  0  0
   -3.8437    0.9622   -1.3711 H   0  0  0  0  0  0  0  0  0  0  0  0
   -4.4379    1.6809    0.1398 H   0  0  0  0  0  0  0  0  0  0  0  0
    3.0317    2.4109    1.1262 H   0  0  0  0  0  0  0  0  0  0  0  0
    2.6007    0.9944    2.1138 H   0  0  0  0  0  0  0  0  0  0  0  0
    4.0032    0.9482    1.0322 H   0  0  0  0  0  0  0  0  0  0  0  0
    2.6461    2.1193   -1.3344 H   0  0  0  0  0  0  0  0  0  0  0  0
    0.9197   -2.9472   -0.0664 H   0  0  0  0  0  0  0  0  0  0  0  0
  1  9  1  0  0  0  0
  1 28  1  0  0  0  0
  2 12  1  0  0  0  0
  2 29  1  0  0  0  0
  3 13  2  0  0  0  0
  4  5  1  0  0  0  0
  4  6  1  0  0  0  0
  4  7  1  0  0  0  0
  5  8  1  0  0  0  0
  5 12  2  0  0  0  0
  6 10  1  0  0  0  0
  6 17  1  0  0  0  0
  6 18  1  0  0  0  0
  7 11  1  0  0  0  0
  7 19  1  0  0  0  0
  7 20  1  0  0  0  0
  8  9  1  0  0  0  0
  8 15  1  0  0  0  0
  8 16  1  0  0  0  0
  9 13  1  0  0  0  0
  9 14  1  0  0  0  0
 10 11  1  0  0  0  0
 10 21  1  0  0  0  0
 10 22  1  0  0  0  0
 11 23  1  0  0  0  0
 11 24  1  0  0  0  0
 12 13  1  0  0  0  0
 14 25  1  0  0  0  0
 14 26  1  0  0  0  0
 14 27  1  0  0  0  0
M  END
> <PUBCHEM_COMPOUND_CID>
22890058

> <PUBCHEM_CONFORMER_RMSD>
0.6

> <PUBCHEM_CONFORMER_DIVERSEORDER>
1
4
2
3

> <PUBCHEM_MMFF94_PARTIAL_CHARGES>
13
1 -0.68
12 0.09
13 0.49
2 -0.53
28 0.4
29 0.45
3 -0.57
4 -0.84
5 -0.04
6 0.37
7 0.37
8 0.14
9 0.34

> <PUBCHEM_EFFECTIVE_ROTOR_COUNT>
2.4

> <PUBCHEM_PHARMACOPHORE_FEATURES>
7
1 1 acceptor
1 1 donor
1 2 donor
1 3 acceptor
1 4 cation
5 4 6 7 10 11 rings
5 5 8 9 12 13 rings

> <PUBCHEM_HEAVY_ATOM_COUNT>
14

> <PUBCHEM_ATOM_DEF_STEREO_COUNT>
0

> <PUBCHEM_ATOM_UDEF_STEREO_COUNT>
1

> <PUBCHEM_BOND_DEF_STEREO_COUNT>
0

> <PUBCHEM_BOND_UDEF_STEREO_COUNT>
0

> <PUBCHEM_ISOTOPIC_ATOM_COUNT>
0

> <PUBCHEM_COMPONENT_COUNT>
1

> <PUBCHEM_CACTVS_TAUTO_COUNT>
5

> <PUBCHEM_CONFORMER_ID>
015D464A00000001

> <PUBCHEM_MMFF94_ENERGY>
26.9408

> <PUBCHEM_FEATURE_SELFOVERLAP>
35.522

> <PUBCHEM_SHAPE_FINGERPRINT>
10608611 8 18410006603224751745
10980938 120 18411700984606870827
11132069 177 18334851732133600281
11471102 20 18411413982445223621
12932764 1 18059857298321025261
13296908 3 18260552212464353267
13380535 76 18410289258890116579
13922767 16 18341885247744334666
14144814 61 18413389830557393425
14325111 11 18410573994005233785
14415576 193 18334860476618423893
14897335 6 18341603854171581327
15219456 202 18409445869463567937
15442244 35 17907860604759868497
15536298 74 18343862208374398642
15775835 57 18272933859896268813
16945 1 18193840572371867110
18186145 218 17989214762699710425
200 152 18131056122812968341
20201158 50 18337953364288754851
20645477 70 18270957947676263615
21040471 1 18338799030458926728
21501502 16 18409169879144198513
2255824 54 18113622257410243442
22854114 111 18413387635612807801
2334 1 18410575106169576907
23402539 116 18129931390668075884
23402655 69 18342166731823007837
23463225 33 18335419028219287771
2748010 2 18410294704945298359
3248919 1 17895191142642045945
5104073 3 18410856543092911121
528886 8 18410570690937954497
53812653 166 18200869694548049760
57096353 35 18339922722831688109
581208 293 18410006663079636565
7364860 26 18200028430666445950
81228 2 17621033596045194843
8809292 202 18260556593294481443

> <PUBCHEM_SHAPE_MULTIPOLES>
265.52
6.02
1.86
0.79
3.15
0.57
-0.02
-1.21
0.23
-0.51
0.03
-0.45
-0.23
0.22

> <PUBCHEM_SHAPE_SELFOVERLAP>
560.024

> <PUBCHEM_SHAPE_VOLUME>
152.8

> <PUBCHEM_COORDINATE_TYPE>
2
5
10

$$$$
