23251203
  -OEChem-03102308233D

 48 50  0     0  0  0  0  0  0999 V2000
    1.2092    1.3174    0.7404 O   0  0  0  0  0  0  0  0  0  0  0  0
    5.2943   -0.1906   -1.3911 O   0  0  0  0  0  0  0  0  0  0  0  0
    2.0105   -3.3066    0.0378 O   0  0  0  0  0  0  0  0  0  0  0  0
    0.2679   -1.9822    2.0078 O   0  0  0  0  0  0  0  0  0  0  0  0
   -6.9751    0.9041   -1.2230 O   0  0  0  0  0  0  0  0  0  0  0  0
    1.5100    2.6878    0.4156 C   0  0  0  0  0  0  0  0  0  0  0  0
    3.0208    2.9677    0.4691 C   0  0  0  0  0  0  0  0  0  0  0  0
    3.7898    2.0479   -0.4686 C   0  0  0  0  0  0  0  0  0  0  0  0
    3.3038    0.6365   -0.3218 C   0  0  0  0  0  0  0  0  0  0  0  0
    2.0597    0.3586    0.2566 C   0  0  0  0  0  0  0  0  0  0  0  0
    0.8113    3.5363    1.4881 C   0  0  0  0  0  0  0  0  0  0  0  0
    0.8924    3.0230   -0.9505 C   0  0  0  0  0  0  0  0  0  0  0  0
    1.6258   -0.9637    0.3884 C   0  0  0  0  0  0  0  0  0  0  0  0
    4.0886   -0.4231   -0.7969 C   0  0  0  0  0  0  0  0  0  0  0  0
    2.4192   -2.0114   -0.0767 C   0  0  0  0  0  0  0  0  0  0  0  0
    3.6488   -1.7411   -0.6724 C   0  0  0  0  0  0  0  0  0  0  0  0
    0.3359   -1.2615    1.0045 C   0  0  0  0  0  0  0  0  0  0  0  0
   -0.9035   -0.6990    0.3735 C   0  0  0  0  0  0  0  0  0  0  0  0
    1.2528   -3.8442   -1.0439 C   0  0  0  0  0  0  0  0  0  0  0  0
   -2.1113   -0.9701    0.8898 C   0  0  0  0  0  0  0  0  0  0  0  0
   -3.3856   -0.4791    0.3363 C   0  0  0  0  0  0  0  0  0  0  0  0
   -3.3970    0.6286   -0.5116 C   0  0  0  0  0  0  0  0  0  0  0  0
   -4.5804   -1.1220    0.6599 C   0  0  0  0  0  0  0  0  0  0  0  0
   -4.6032    1.0934   -1.0356 C   0  0  0  0  0  0  0  0  0  0  0  0
   -5.7866   -0.6572    0.1360 C   0  0  0  0  0  0  0  0  0  0  0  0
   -5.7980    0.4504   -0.7118 C   0  0  0  0  0  0  0  0  0  0  0  0
    3.3820    2.7900    1.4919 H   0  0  0  0  0  0  0  0  0  0  0  0
    3.2403    4.0147    0.2287 H   0  0  0  0  0  0  0  0  0  0  0  0
    3.6605    2.3665   -1.5094 H   0  0  0  0  0  0  0  0  0  0  0  0
    4.8571    2.1178   -0.2284 H   0  0  0  0  0  0  0  0  0  0  0  0
    0.9640    4.6075    1.3200 H   0  0  0  0  0  0  0  0  0  0  0  0
    1.1837    3.2846    2.4879 H   0  0  0  0  0  0  0  0  0  0  0  0
   -0.2666    3.3369    1.5035 H   0  0  0  0  0  0  0  0  0  0  0  0
    1.2836    2.3811   -1.7464 H   0  0  0  0  0  0  0  0  0  0  0  0
    1.0758    4.0663   -1.2273 H   0  0  0  0  0  0  0  0  0  0  0  0
   -0.1908    2.8543   -0.9357 H   0  0  0  0  0  0  0  0  0  0  0  0
    4.2610   -2.5624   -1.0375 H   0  0  0  0  0  0  0  0  0  0  0  0
    5.6898   -1.0391   -1.6545 H   0  0  0  0  0  0  0  0  0  0  0  0
   -0.7643   -0.1109   -0.5262 H   0  0  0  0  0  0  0  0  0  0  0  0
    0.3408   -3.2629   -1.2106 H   0  0  0  0  0  0  0  0  0  0  0  0
    1.8550   -3.8658   -1.9578 H   0  0  0  0  0  0  0  0  0  0  0  0
    0.9708   -4.8692   -0.7877 H   0  0  0  0  0  0  0  0  0  0  0  0
   -2.2016   -1.5969    1.7737 H   0  0  0  0  0  0  0  0  0  0  0  0
   -2.4947    1.1730   -0.7743 H   0  0  0  0  0  0  0  0  0  0  0  0
   -4.5902   -1.9874    1.3180 H   0  0  0  0  0  0  0  0  0  0  0  0
   -4.6068    1.9595   -1.6919 H   0  0  0  0  0  0  0  0  0  0  0  0
   -6.7106   -1.1670    0.3956 H   0  0  0  0  0  0  0  0  0  0  0  0
   -7.6983    0.3423   -0.8951 H   0  0  0  0  0  0  0  0  0  0  0  0
  1  6  1  0  0  0  0
  1 10  1  0  0  0  0
  2 14  1  0  0  0  0
  2 38  1  0  0  0  0
  3 15  1  0  0  0  0
  3 19  1  0  0  0  0
  4 17  2  0  0  0  0
  5 26  1  0  0  0  0
  5 48  1  0  0  0  0
  6  7  1  0  0  0  0
  6 11  1  0  0  0  0
  6 12  1  0  0  0  0
  7  8  1  0  0  0  0
  7 27  1  0  0  0  0
  7 28  1  0  0  0  0
  8  9  1  0  0  0  0
  8 29  1  0  0  0  0
  8 30  1  0  0  0  0
  9 10  2  0  0  0  0
  9 14  1  0  0  0  0
 10 13  1  0  0  0  0
 11 31  1  0  0  0  0
 11 32  1  0  0  0  0
 11 33  1  0  0  0  0
 12 34  1  0  0  0  0
 12 35  1  0  0  0  0
 12 36  1  0  0  0  0
 13 15  2  0  0  0  0
 13 17  1  0  0  0  0
 14 16  2  0  0  0  0
 15 16  1  0  0  0  0
 16 37  1  0  0  0  0
 17 18  1  0  0  0  0
 18 20  2  0  0  0  0
 18 39  1  0  0  0  0
 19 40  1  0  0  0  0
 19 41  1  0  0  0  0
 19 42  1  0  0  0  0
 20 21  1  0  0  0  0
 20 43  1  0  0  0  0
 21 22  2  0  0  0  0
 21 23  1  0  0  0  0
 22 24  1  0  0  0  0
 22 44  1  0  0  0  0
 23 25  2  0  0  0  0
 23 45  1  0  0  0  0
 24 26  2  0  0  0  0
 24 46  1  0  0  0  0
 25 26  1  0  0  0  0
 25 47  1  0  0  0  0
M  END
> <PUBCHEM_COMPOUND_CID>
23251203

> <PUBCHEM_CONFORMER_RMSD>
0.8

> <PUBCHEM_CONFORMER_DIVERSEORDER>
1
9
8
18
19
7
17
2
11
12
3
13
16
10
15
5
14
21
20
6
4

> <PUBCHEM_MMFF94_PARTIAL_CHARGES>
32
1 -0.36
10 0.08
13 0.09
14 0.08
15 0.08
16 -0.15
17 0.47
18 -0.14
19 0.28
2 -0.53
20 -0.18
21 0.03
22 -0.15
23 -0.15
24 -0.15
25 -0.15
26 0.08
3 -0.36
37 0.15
38 0.45
39 0.15
4 -0.57
43 0.15
44 0.15
45 0.15
46 0.15
47 0.15
48 0.45
5 -0.53
6 0.28
8 0.14
9 -0.14

> <PUBCHEM_EFFECTIVE_ROTOR_COUNT>
4.8

> <PUBCHEM_PHARMACOPHORE_FEATURES>
9
1 1 acceptor
1 2 donor
1 3 acceptor
1 4 acceptor
1 5 donor
3 6 11 12 hydrophobe
6 1 6 7 8 9 10 rings
6 21 22 23 24 25 26 rings
6 9 10 13 14 15 16 rings

> <PUBCHEM_HEAVY_ATOM_COUNT>
26

> <PUBCHEM_ATOM_DEF_STEREO_COUNT>
0

> <PUBCHEM_ATOM_UDEF_STEREO_COUNT>
0

> <PUBCHEM_BOND_DEF_STEREO_COUNT>
1

> <PUBCHEM_BOND_UDEF_STEREO_COUNT>
0

> <PUBCHEM_ISOTOPIC_ATOM_COUNT>
0

> <PUBCHEM_COMPONENT_COUNT>
1

> <PUBCHEM_CACTVS_TAUTO_COUNT>
10

> <PUBCHEM_CONFORMER_ID>
0162C90300000001

> <PUBCHEM_MMFF94_ENERGY>
95.4834

> <PUBCHEM_FEATURE_SELFOVERLAP>
45.701

> <PUBCHEM_SHAPE_FINGERPRINT>
10693767 8 17987805103384881454
11595378 159 14562796726228629861
12403259 415 18187088399078965985
12730499 353 18336272322631763987
12769317 202 18408036325378826779
13402501 40 18259703423536595629
13911987 19 18267047062352535702
14251757 17 18261671480862978765
14681490 219 18413106139415098221
14931854 50 18335989657627203372
15081414 286 18336274538771974697
15210252 30 17749398065605514716
16988056 13 18409444825449938189
17093844 170 18261670467288009940
17492 54 18188790400287482196
17844677 252 18412831261987357723
17909252 39 18200031733738604088
18608769 82 17896050987143236955
21033648 29 17967533519203697281
21285901 2 17968657107880019429
21792961 116 18115046133938131394
221357 26 18411135810330252533
22289505 5 18408882910651199789
22393880 68 18261388983868525251
23227448 37 18265050417750365839
23559900 14 18409726279541564369
238 59 18340777055903407034
3060560 45 18343304781918147470
340366 18 18060138777355606438
46194498 28 18114187496628804013
495365 180 18270676584094227160
508706 21 17896037827136536547
5312625 73 18336547218145799435
53794403 172 17750803344866800437
574716 61 17987788739505839301
59755656 215 18260546732054630013
6443956 14 18412268350082565276
7471813 234 17704075087953577520

> <PUBCHEM_SHAPE_MULTIPOLES>
505.72
11.95
4.04
1.26
20.8
0.31
-0.16
1.45
4.96
-4.54
-0.18
0.11
0.04
1.43

> <PUBCHEM_SHAPE_SELFOVERLAP>
1095.636

> <PUBCHEM_SHAPE_VOLUME>
276.5

> <PUBCHEM_COORDINATE_TYPE>
2
5
10

$$$$
