23250008
  -OEChem-03102308253D

 61 62  0     0  0  0  0  0  0999 V2000
    0.2231   -2.2959   -0.2150 O   0  0  0  0  0  0  0  0  0  0  0  0
    3.8389    0.1681    1.7032 O   0  0  0  0  0  0  0  0  0  0  0  0
    0.3920    2.4615   -0.6810 O   0  0  0  0  0  0  0  0  0  0  0  0
   -0.9396   -0.0432   -2.4499 O   0  0  0  0  0  0  0  0  0  0  0  0
   -8.4426    0.6609    1.3069 O   0  0  0  0  0  0  0  0  0  0  0  0
    2.0352   -1.0755    0.7497 C   0  0  0  0  0  0  0  0  0  0  0  0
    2.1152    1.3163    0.5112 C   0  0  0  0  0  0  0  0  0  0  0  0
    2.6736    0.1403    0.9944 C   0  0  0  0  0  0  0  0  0  0  0  0
    0.8443   -1.1043    0.0241 C   0  0  0  0  0  0  0  0  0  0  0  0
    0.2917    0.0827   -0.4568 C   0  0  0  0  0  0  0  0  0  0  0  0
    2.6287   -2.3479    1.2640 C   0  0  0  0  0  0  0  0  0  0  0  0
    0.9300    1.2985   -0.2121 C   0  0  0  0  0  0  0  0  0  0  0  0
    2.8057    2.6308    0.7760 C   0  0  0  0  0  0  0  0  0  0  0  0
    3.5827   -2.9855    0.2859 C   0  0  0  0  0  0  0  0  0  0  0  0
    3.7892    2.9876   -0.3028 C   0  0  0  0  0  0  0  0  0  0  0  0
   -0.9540    0.0527   -1.2157 C   0  0  0  0  0  0  0  0  0  0  0  0
    3.4852   -4.1937   -0.3011 C   0  0  0  0  0  0  0  0  0  0  0  0
    4.9301    3.6930   -0.1821 C   0  0  0  0  0  0  0  0  0  0  0  0
   -2.2499    0.1726   -0.4683 C   0  0  0  0  0  0  0  0  0  0  0  0
    4.4774   -4.7696   -1.2712 C   0  0  0  0  0  0  0  0  0  0  0  0
    2.3183   -5.0957    0.0019 C   0  0  0  0  0  0  0  0  0  0  0  0
   -0.7319   -2.7310    0.7491 C   0  0  0  0  0  0  0  0  0  0  0  0
    5.3492    4.2400    1.1567 C   0  0  0  0  0  0  0  0  0  0  0  0
    5.8734    4.0163   -1.3058 C   0  0  0  0  0  0  0  0  0  0  0  0
   -3.4175    0.1774   -1.1282 C   0  0  0  0  0  0  0  0  0  0  0  0
   -4.7383    0.3050   -0.4877 C   0  0  0  0  0  0  0  0  0  0  0  0
   -4.8694    0.0154    0.8606 C   0  0  0  0  0  0  0  0  0  0  0  0
   -5.8236    0.7115   -1.2469 C   0  0  0  0  0  0  0  0  0  0  0  0
   -6.1202    0.1357    1.4665 C   0  0  0  0  0  0  0  0  0  0  0  0
   -7.0743    0.8319   -0.6410 C   0  0  0  0  0  0  0  0  0  0  0  0
   -7.2225    0.5439    0.7156 C   0  0  0  0  0  0  0  0  0  0  0  0
    3.1877   -2.1530    2.1891 H   0  0  0  0  0  0  0  0  0  0  0  0
    1.8365   -3.0208    1.5962 H   0  0  0  0  0  0  0  0  0  0  0  0
    2.0560    3.4311    0.8285 H   0  0  0  0  0  0  0  0  0  0  0  0
    3.2510    2.6176    1.7759 H   0  0  0  0  0  0  0  0  0  0  0  0
    4.4570   -2.3827    0.0406 H   0  0  0  0  0  0  0  0  0  0  0  0
    3.5317    2.6470   -1.3058 H   0  0  0  0  0  0  0  0  0  0  0  0
    4.3576    0.9562    1.4780 H   0  0  0  0  0  0  0  0  0  0  0  0
   -0.4063    2.2891   -1.2049 H   0  0  0  0  0  0  0  0  0  0  0  0
   -2.1684    0.2781    0.6073 H   0  0  0  0  0  0  0  0  0  0  0  0
    3.9884   -5.0027   -2.2226 H   0  0  0  0  0  0  0  0  0  0  0  0
    4.9198   -5.6866   -0.8690 H   0  0  0  0  0  0  0  0  0  0  0  0
    5.2921   -4.0676   -1.4774 H   0  0  0  0  0  0  0  0  0  0  0  0
    2.6339   -6.1451   -0.0358 H   0  0  0  0  0  0  0  0  0  0  0  0
    1.5310   -4.9581   -0.7460 H   0  0  0  0  0  0  0  0  0  0  0  0
    1.8943   -4.9566    0.9981 H   0  0  0  0  0  0  0  0  0  0  0  0
   -0.7095   -2.1320    1.6663 H   0  0  0  0  0  0  0  0  0  0  0  0
   -0.5199   -3.7733    1.0029 H   0  0  0  0  0  0  0  0  0  0  0  0
   -1.7312   -2.6818    0.3079 H   0  0  0  0  0  0  0  0  0  0  0  0
    4.5493    4.2686    1.9000 H   0  0  0  0  0  0  0  0  0  0  0  0
    6.1767    3.6479    1.5609 H   0  0  0  0  0  0  0  0  0  0  0  0
    5.6945    5.2743    1.0461 H   0  0  0  0  0  0  0  0  0  0  0  0
    5.5350    3.5833   -2.2529 H   0  0  0  0  0  0  0  0  0  0  0  0
    5.9505    5.0997   -1.4421 H   0  0  0  0  0  0  0  0  0  0  0  0
    6.8702    3.6171   -1.0931 H   0  0  0  0  0  0  0  0  0  0  0  0
   -3.4329    0.0955   -2.2125 H   0  0  0  0  0  0  0  0  0  0  0  0
   -4.0450   -0.3266    1.4782 H   0  0  0  0  0  0  0  0  0  0  0  0
   -5.7237    0.9407   -2.3045 H   0  0  0  0  0  0  0  0  0  0  0  0
   -6.2311   -0.0947    2.5227 H   0  0  0  0  0  0  0  0  0  0  0  0
   -7.9251    1.1512   -1.2369 H   0  0  0  0  0  0  0  0  0  0  0  0
   -9.0887    0.9533    0.6411 H   0  0  0  0  0  0  0  0  0  0  0  0
  1  9  1  0  0  0  0
  1 22  1  0  0  0  0
  2  8  1  0  0  0  0
  2 38  1  0  0  0  0
  3 12  1  0  0  0  0
  3 39  1  0  0  0  0
  4 16  2  0  0  0  0
  5 31  1  0  0  0  0
  5 61  1  0  0  0  0
  6  8  1  0  0  0  0
  6  9  2  0  0  0  0
  6 11  1  0  0  0  0
  7  8  2  0  0  0  0
  7 12  1  0  0  0  0
  7 13  1  0  0  0  0
  9 10  1  0  0  0  0
 10 12  2  0  0  0  0
 10 16  1  0  0  0  0
 11 14  1  0  0  0  0
 11 32  1  0  0  0  0
 11 33  1  0  0  0  0
 13 15  1  0  0  0  0
 13 34  1  0  0  0  0
 13 35  1  0  0  0  0
 14 17  2  0  0  0  0
 14 36  1  0  0  0  0
 15 18  2  0  0  0  0
 15 37  1  0  0  0  0
 16 19  1  0  0  0  0
 17 20  1  0  0  0  0
 17 21  1  0  0  0  0
 18 23  1  0  0  0  0
 18 24  1  0  0  0  0
 19 25  2  0  0  0  0
 19 40  1  0  0  0  0
 20 41  1  0  0  0  0
 20 42  1  0  0  0  0
 20 43  1  0  0  0  0
 21 44  1  0  0  0  0
 21 45  1  0  0  0  0
 21 46  1  0  0  0  0
 22 47  1  0  0  0  0
 22 48  1  0  0  0  0
 22 49  1  0  0  0  0
 23 50  1  0  0  0  0
 23 51  1  0  0  0  0
 23 52  1  0  0  0  0
 24 53  1  0  0  0  0
 24 54  1  0  0  0  0
 24 55  1  0  0  0  0
 25 26  1  0  0  0  0
 25 56  1  0  0  0  0
 26 27  2  0  0  0  0
 26 28  1  0  0  0  0
 27 29  1  0  0  0  0
 27 57  1  0  0  0  0
 28 30  2  0  0  0  0
 28 58  1  0  0  0  0
 29 31  2  0  0  0  0
 29 59  1  0  0  0  0
 30 31  1  0  0  0  0
 30 60  1  0  0  0  0
M  END
> <PUBCHEM_COMPOUND_CID>
23250008

> <PUBCHEM_CONFORMER_RMSD>
1

> <PUBCHEM_CONFORMER_DIVERSEORDER>
2
83
107
36
116
67
35
77
21
40
20
111
25
11
53
69
31
34
18
65
101
119
120
114
90
47
26
105
108
94
19
32
59
41
104
121
95
27
58
28
84
117
115
15
73
13
112
62
118
63
7
4
96
82
12
42
54
75
98
74
81
24
17
109
29
99
50
10
45
79
100
86
106
70
52
76
89
23
9
88
60
80
22
14
71
66
8
103
49
44
39
113
48
16
92
46
33
93
68
122
72
1
37
102
61
51
30
64
97
57
6
87
56
5
78
3
85
43
110
91
55
38

> <PUBCHEM_MMFF94_PARTIAL_CHARGES>
42
1 -0.36
10 0.09
11 0.28
12 0.08
13 0.28
14 -0.29
15 -0.29
16 0.47
17 -0.28
18 -0.28
19 -0.14
2 -0.53
20 0.14
21 0.14
22 0.28
23 0.14
24 0.14
25 -0.18
26 0.03
27 -0.15
28 -0.15
29 -0.15
3 -0.53
30 -0.15
31 0.08
36 0.15
37 0.15
38 0.45
39 0.45
4 -0.57
40 0.15
5 -0.53
56 0.15
57 0.15
58 0.15
59 0.15
6 -0.14
60 0.15
61 0.45
7 -0.14
8 0.08
9 0.08

> <PUBCHEM_EFFECTIVE_ROTOR_COUNT>
8

> <PUBCHEM_PHARMACOPHORE_FEATURES>
9
1 1 acceptor
1 2 donor
1 3 donor
1 4 acceptor
1 5 donor
3 17 20 21 hydrophobe
3 18 23 24 hydrophobe
6 26 27 28 29 30 31 rings
6 6 7 8 9 10 12 rings

> <PUBCHEM_HEAVY_ATOM_COUNT>
31

> <PUBCHEM_ATOM_DEF_STEREO_COUNT>
0

> <PUBCHEM_ATOM_UDEF_STEREO_COUNT>
0

> <PUBCHEM_BOND_DEF_STEREO_COUNT>
1

> <PUBCHEM_BOND_UDEF_STEREO_COUNT>
0

> <PUBCHEM_ISOTOPIC_ATOM_COUNT>
0

> <PUBCHEM_COMPONENT_COUNT>
1

> <PUBCHEM_CACTVS_TAUTO_COUNT>
57

> <PUBCHEM_CONFORMER_ID>
0162C45800000002

> <PUBCHEM_MMFF94_ENERGY>
98.7809

> <PUBCHEM_FEATURE_SELFOVERLAP>
45.671

> <PUBCHEM_SHAPE_FINGERPRINT>
10076449 9 18125445211761257446
10169797 241 18040998397566927235
10319688 140 18410294666781300550
10411042 1 18051128086894210018
10554248 39 18270380712988891349
10670039 82 16128113203827607145
10674148 151 17917157212451115396
10721379 63 18343310236768842876
11505856 67 17182222950965219332
11763715 3 17690302416974535630
12160290 23 17035532676982087482
12166972 35 18129941153392529907
13008946 119 17984417714391953768
13140716 1 18118381051494153400
13533116 47 18341048532655116995
13540713 5 18125696093147348470
13673619 4 18044380430925534087
13757389 114 17326912067225927206
13785724 45 18055637209232000718
13955234 65 18410009914554697354
14114211 68 18337966682993408948
14790565 3 18120367911665541036
15183329 4 14835862693586881029
15297060 5 18268431420316958488
15324884 4 17460008735362183855
15392192 104 18189055451309142681
15420108 30 18193267731636732450
15684393 108 7925042805153927961
15927050 60 18268711782469878286
16992787 43 18341335509849229502
17913733 40 18336548334199103593
1813 80 17915179005794745390
19319366 153 18272082855208627976
20505436 4 17916586573782606373
21033648 29 17530953671689838429
21033650 10 15482407416882772907
21049683 271 18262527975073128302
21365058 113 18124602985653239270
21756936 100 18055065720878462965
21927370 108 18051691036958440482
24180151 248 18261116219122960708
24771750 20 18335426798775326718
249999 5 18409448085524176946
27425 322 18126002921695920020
3178227 256 18334005087106069672
3411729 13 18260263083529178944
38570 142 18201165467370986653
4144715 1 18186806851489335441
4516262 110 18340196501159296429
5385378 56 18410575114733722441
54076057 127 18410301323885598963
58260988 587 18336273413526673816
5912855 24 18200302364387883071
6703917 75 17977953715053313972
86090 222 17822862957581757107
9896288 288 17905609157076206714
9962374 69 18341315713907495647

> <PUBCHEM_SHAPE_MULTIPOLES>
608.62
16.98
6.27
1.49
36.73
4.58
-0.19
-11.64
2.54
-19.03
-0.8
0.39
-0.17
0.58

> <PUBCHEM_SHAPE_SELFOVERLAP>
1280.982

> <PUBCHEM_SHAPE_VOLUME>
344.4

> <PUBCHEM_COORDINATE_TYPE>
2
5
10

$$$$
