234540
  -OEChem-03112308053D

 32 33  0     1  0  0  0  0  0999 V2000
    0.0989    0.5663    1.3315 O   0  5  0  0  0  0  0  0  0  0  0  0
    2.4464    1.6709    0.8027 O   0  0  0  0  0  0  0  0  0  0  0  0
   -0.0686    0.3161   -0.0081 N   0  3  2  0  0  0  0  0  0  0  0  0
   -0.8365   -0.9985   -0.2249 C   0  0  1  0  0  0  0  0  0  0  0  0
    1.3088    0.1982   -0.6954 C   0  0  2  0  0  0  0  0  0  0  0  0
   -0.8750    1.4489   -0.6285 C   0  0  0  0  0  0  0  0  0  0  0  0
   -0.0649   -2.1941    0.3432 C   0  0  0  0  0  0  0  0  0  0  0  0
   -2.2479   -0.9293    0.3714 C   0  0  0  0  0  0  0  0  0  0  0  0
    2.0928   -1.0041   -0.1440 C   0  0  0  0  0  0  0  0  0  0  0  0
    1.3153   -2.3054   -0.2892 C   0  0  0  0  0  0  0  0  0  0  0  0
   -2.2890    1.5395   -0.0654 C   0  0  0  0  0  0  0  0  0  0  0  0
   -3.0407    0.2264   -0.2267 C   0  0  0  0  0  0  0  0  0  0  0  0
    2.1605    1.4650   -0.5666 C   0  0  0  0  0  0  0  0  0  0  0  0
   -0.9137   -1.1036   -1.3162 H   0  0  0  0  0  0  0  0  0  0  0  0
    1.0825    0.0322   -1.7566 H   0  0  0  0  0  0  0  0  0  0  0  0
   -0.8848    1.2741   -1.7099 H   0  0  0  0  0  0  0  0  0  0  0  0
   -0.3457    2.3795   -0.4084 H   0  0  0  0  0  0  0  0  0  0  0  0
   -0.6195   -3.1211    0.1559 H   0  0  0  0  0  0  0  0  0  0  0  0
    0.0398   -2.0995    1.4311 H   0  0  0  0  0  0  0  0  0  0  0  0
   -2.1966   -0.8098    1.4607 H   0  0  0  0  0  0  0  0  0  0  0  0
   -2.7823   -1.8670    0.1781 H   0  0  0  0  0  0  0  0  0  0  0  0
    2.3323   -0.8605    0.9168 H   0  0  0  0  0  0  0  0  0  0  0  0
    3.0480   -1.1009   -0.6740 H   0  0  0  0  0  0  0  0  0  0  0  0
    1.8726   -3.1251    0.1779 H   0  0  0  0  0  0  0  0  0  0  0  0
    1.2132   -2.5544   -1.3526 H   0  0  0  0  0  0  0  0  0  0  0  0
   -2.8354    2.3419   -0.5735 H   0  0  0  0  0  0  0  0  0  0  0  0
   -2.2493    1.8052    0.9979 H   0  0  0  0  0  0  0  0  0  0  0  0
   -4.0206    0.2961    0.2585 H   0  0  0  0  0  0  0  0  0  0  0  0
   -3.2231    0.0354   -1.2913 H   0  0  0  0  0  0  0  0  0  0  0  0
    1.6808    2.3572   -0.9753 H   0  0  0  0  0  0  0  0  0  0  0  0
    3.1113    1.3394   -1.0952 H   0  0  0  0  0  0  0  0  0  0  0  0
    1.6091    1.8791    1.2504 H   0  0  0  0  0  0  0  0  0  0  0  0
  1  3  1  0  0  0  0
  2 13  1  0  0  0  0
  2 32  1  0  0  0  0
  3  4  1  0  0  0  0
  3  5  1  0  0  0  0
  3  6  1  0  0  0  0
  4  7  1  0  0  0  0
  4  8  1  0  0  0  0
  4 14  1  0  0  0  0
  5  9  1  0  0  0  0
  5 13  1  0  0  0  0
  5 15  1  0  0  0  0
  6 11  1  0  0  0  0
  6 16  1  0  0  0  0
  6 17  1  0  0  0  0
  7 10  1  0  0  0  0
  7 18  1  0  0  0  0
  7 19  1  0  0  0  0
  8 12  1  0  0  0  0
  8 20  1  0  0  0  0
  8 21  1  0  0  0  0
  9 10  1  0  0  0  0
  9 22  1  0  0  0  0
  9 23  1  0  0  0  0
 10 24  1  0  0  0  0
 10 25  1  0  0  0  0
 11 12  1  0  0  0  0
 11 26  1  0  0  0  0
 11 27  1  0  0  0  0
 12 28  1  0  0  0  0
 12 29  1  0  0  0  0
 13 30  1  0  0  0  0
 13 31  1  0  0  0  0
M  CHG  2   1  -1   3   1
M  END
> <PUBCHEM_COMPOUND_CID>
234540

> <PUBCHEM_CONFORMER_RMSD>
0.6

> <PUBCHEM_CONFORMER_DIVERSEORDER>
1
7
12
9
4
11
8
5
3
6
10
2

> <PUBCHEM_MMFF94_PARTIAL_CHARGES>
8
1 -0.75
13 0.28
2 -0.68
3 -0.02
32 0.4
4 0.26
5 0.26
6 0.26

> <PUBCHEM_EFFECTIVE_ROTOR_COUNT>
2.6

> <PUBCHEM_PHARMACOPHORE_FEATURES>
5
1 1 anion
1 2 acceptor
1 2 donor
6 3 4 5 7 9 10 rings
6 3 4 6 8 11 12 rings

> <PUBCHEM_HEAVY_ATOM_COUNT>
13

> <PUBCHEM_ATOM_DEF_STEREO_COUNT>
0

> <PUBCHEM_ATOM_UDEF_STEREO_COUNT>
3

> <PUBCHEM_BOND_DEF_STEREO_COUNT>
0

> <PUBCHEM_BOND_UDEF_STEREO_COUNT>
0

> <PUBCHEM_ISOTOPIC_ATOM_COUNT>
0

> <PUBCHEM_COMPONENT_COUNT>
1

> <PUBCHEM_CACTVS_TAUTO_COUNT>
1

> <PUBCHEM_CONFORMER_ID>
0003942C00000001

> <PUBCHEM_MMFF94_ENERGY>
20.3891

> <PUBCHEM_FEATURE_SELFOVERLAP>
25.389

> <PUBCHEM_SHAPE_FINGERPRINT>
1 1 18411698759829889318
12524768 44 18261114036999199501
12897270 3 18408328778313071069
13380535 76 18409726300599786318
13897977 150 18410012126478451749
14128692 85 18125158225818298655
14648413 74 18263364685656394613
14817 1 11126713062424225866
15775835 57 18341903995208113749
161256 15 18335704879978578877
16945 1 18265336097135873959
17990270 104 18194965140986950423
193761 8 18409732880305424798
19973954 147 18337114453911780885
20201158 50 18265614286431097591
20871998 184 17905615753960817767
21040471 1 18265057001544548174
21501502 16 18338800018201204085
22344851 341 18408881811002649562
2334 1 18336831982460537487
23402539 116 17908971442042590775
23552423 10 18335423405091714327
23559900 14 18270137747078891990
241688 4 17330278268828561858
2748010 2 18335711567237682823
305870 269 18335411370535231184
5084963 1 18341896234154678543
5255222 1 18045501911131271725
528886 8 18335702792518971341
53812653 166 18339360764936642254
63268167 104 18121508950841231723
66348 1 18336271154152434151
7364860 26 18270398283019317582
81228 2 17404585966347525546

> <PUBCHEM_SHAPE_MULTIPOLES>
250.81
3.7
2.39
0.87
1.26
0.56
0.13
-0.9
-0.12
-0.93
0.03
-0.15
-0.17
0.3

> <PUBCHEM_SHAPE_SELFOVERLAP>
504.046

> <PUBCHEM_SHAPE_VOLUME>
146.8

> <PUBCHEM_COORDINATE_TYPE>
2
5
10

$$$$
