25001841
  -OEChem-03102308573D

 71 73  0     1  0  0  0  0  0999 V2000
   -2.0766   -1.6715   -0.9829 O   0  0  0  0  0  0  0  0  0  0  0  0
   -0.9242    2.7257    0.8008 O   0  0  0  0  0  0  0  0  0  0  0  0
   -0.8511   -3.2727    2.1066 O   0  0  0  0  0  0  0  0  0  0  0  0
    1.7875    3.0520   -1.6793 O   0  0  0  0  0  0  0  0  0  0  0  0
   -2.5836   -4.8466    0.6370 O   0  0  0  0  0  0  0  0  0  0  0  0
    0.9540    5.4575   -0.6035 O   0  0  0  0  0  0  0  0  0  0  0  0
   -4.5801   -1.8028    0.4927 O   0  0  0  0  0  0  0  0  0  0  0  0
   -2.3747    4.1433   -1.2846 O   0  0  0  0  0  0  0  0  0  0  0  0
   -1.5873    0.5554   -0.1042 O   0  0  0  0  0  0  0  0  0  0  0  0
    3.0186    1.5685    0.6613 O   0  0  0  0  0  0  0  0  0  0  0  0
    1.5909   -2.9848    0.3324 O   0  0  0  0  0  0  0  0  0  0  0  0
   -5.0796   -2.7244   -2.7080 O   0  0  0  0  0  0  0  0  0  0  0  0
   -2.5197    3.9246    2.9621 O   0  0  0  0  0  0  0  0  0  0  0  0
    3.9740   -1.8985    1.6718 O   0  0  0  0  0  0  0  0  0  0  0  0
   -1.1135   -2.2424   -0.0885 C   0  0  2  0  0  0  0  0  0  0  0  0
    0.3916    2.5575    0.2586 C   0  0  2  0  0  0  0  0  0  0  0  0
   -1.7809   -2.6258    1.2433 C   0  0  1  0  0  0  0  0  0  0  0  0
    0.4622    3.1365   -1.1647 C   0  0  1  0  0  0  0  0  0  0  0  0
   -2.9971   -3.5370    1.0261 C   0  0  1  0  0  0  0  0  0  0  0  0
   -0.0110    4.5962   -1.2070 C   0  0  1  0  0  0  0  0  0  0  0  0
   -3.9294   -2.9557   -0.0394 C   0  0  2  0  0  0  0  0  0  0  0  0
   -1.3559    4.7533   -0.4935 C   0  0  2  0  0  0  0  0  0  0  0  0
   -3.1513   -2.5604   -1.3060 C   0  0  1  0  0  0  0  0  0  0  0  0
   -1.3302    4.0951    0.8966 C   0  0  1  0  0  0  0  0  0  0  0  0
   -0.0075   -1.2242    0.1109 C   0  0  0  0  0  0  0  0  0  0  0  0
    0.7135    1.0756    0.2781 C   0  0  0  0  0  0  0  0  0  0  0  0
   -0.3032    0.1389    0.0932 C   0  0  0  0  0  0  0  0  0  0  0  0
    2.0262    0.6495    0.4807 C   0  0  0  0  0  0  0  0  0  0  0  0
    1.3051   -1.6504    0.3138 C   0  0  0  0  0  0  0  0  0  0  0  0
    2.3219   -0.7135    0.4986 C   0  0  0  0  0  0  0  0  0  0  0  0
   -4.0330   -1.8493   -2.3275 C   0  0  0  0  0  0  0  0  0  0  0  0
   -2.6987    4.1136    1.5700 C   0  0  0  0  0  0  0  0  0  0  0  0
    3.6949   -1.1591    0.7107 C   0  0  0  0  0  0  0  0  0  0  0  0
    4.7951   -0.7300   -0.2755 C   0  0  0  0  0  0  0  0  0  0  0  0
    5.9180   -1.7653   -0.4634 C   0  0  0  0  0  0  0  0  0  0  0  0
    5.3374   -3.0766   -0.9973 C   0  0  0  0  0  0  0  0  0  0  0  0
    6.9975   -1.2518   -1.4200 C   0  0  0  0  0  0  0  0  0  0  0  0
   -0.6937   -3.1296   -0.5797 H   0  0  0  0  0  0  0  0  0  0  0  0
    1.0751    3.0874    0.9332 H   0  0  0  0  0  0  0  0  0  0  0  0
   -2.1220   -1.7154    1.7530 H   0  0  0  0  0  0  0  0  0  0  0  0
   -0.1867    2.5460   -1.8249 H   0  0  0  0  0  0  0  0  0  0  0  0
   -3.5225   -3.6474    1.9825 H   0  0  0  0  0  0  0  0  0  0  0  0
   -0.0907    4.9045   -2.2565 H   0  0  0  0  0  0  0  0  0  0  0  0
   -4.7047   -3.6854   -0.3006 H   0  0  0  0  0  0  0  0  0  0  0  0
   -1.6099    5.8140   -0.3814 H   0  0  0  0  0  0  0  0  0  0  0  0
   -2.7345   -3.4644   -1.7695 H   0  0  0  0  0  0  0  0  0  0  0  0
   -0.6074    4.6151    1.5391 H   0  0  0  0  0  0  0  0  0  0  0  0
   -3.4474   -1.5853   -3.2150 H   0  0  0  0  0  0  0  0  0  0  0  0
   -4.4551   -0.9209   -1.9283 H   0  0  0  0  0  0  0  0  0  0  0  0
   -3.3451    3.3134    1.1951 H   0  0  0  0  0  0  0  0  0  0  0  0
   -3.1926    5.0801    1.4290 H   0  0  0  0  0  0  0  0  0  0  0  0
   -1.3176   -3.4877    2.9323 H   0  0  0  0  0  0  0  0  0  0  0  0
    1.7773    3.4214   -2.5787 H   0  0  0  0  0  0  0  0  0  0  0  0
   -3.3842   -5.3898    0.5389 H   0  0  0  0  0  0  0  0  0  0  0  0
    0.6216    6.3682   -0.6783 H   0  0  0  0  0  0  0  0  0  0  0  0
   -5.0863   -2.0859    1.2732 H   0  0  0  0  0  0  0  0  0  0  0  0
   -2.3909    4.5991   -2.1434 H   0  0  0  0  0  0  0  0  0  0  0  0
   -2.2146   -0.1685    0.0429 H   0  0  0  0  0  0  0  0  0  0  0  0
    4.3294   -0.5108   -1.2443 H   0  0  0  0  0  0  0  0  0  0  0  0
    5.2265    0.2026    0.1065 H   0  0  0  0  0  0  0  0  0  0  0  0
    2.8006    2.3918    0.1960 H   0  0  0  0  0  0  0  0  0  0  0  0
    2.5278   -3.1348    0.5336 H   0  0  0  0  0  0  0  0  0  0  0  0
    6.3877   -1.9677    0.5072 H   0  0  0  0  0  0  0  0  0  0  0  0
   -5.6211   -2.2544   -3.3647 H   0  0  0  0  0  0  0  0  0  0  0  0
   -3.4020    3.9435    3.3704 H   0  0  0  0  0  0  0  0  0  0  0  0
    4.7927   -2.9190   -1.9346 H   0  0  0  0  0  0  0  0  0  0  0  0
    6.1369   -3.8000   -1.1927 H   0  0  0  0  0  0  0  0  0  0  0  0
    4.6546   -3.5419   -0.2813 H   0  0  0  0  0  0  0  0  0  0  0  0
    6.5844   -1.0511   -2.4144 H   0  0  0  0  0  0  0  0  0  0  0  0
    7.8037   -1.9850   -1.5279 H   0  0  0  0  0  0  0  0  0  0  0  0
    7.4373   -0.3230   -1.0420 H   0  0  0  0  0  0  0  0  0  0  0  0
  1 15  1  0  0  0  0
  1 23  1  0  0  0  0
  2 16  1  0  0  0  0
  2 24  1  0  0  0  0
  3 17  1  0  0  0  0
  3 52  1  0  0  0  0
  4 18  1  0  0  0  0
  4 53  1  0  0  0  0
  5 19  1  0  0  0  0
  5 54  1  0  0  0  0
  6 20  1  0  0  0  0
  6 55  1  0  0  0  0
  7 21  1  0  0  0  0
  7 56  1  0  0  0  0
  8 22  1  0  0  0  0
  8 57  1  0  0  0  0
  9 27  1  0  0  0  0
  9 58  1  0  0  0  0
 10 28  1  0  0  0  0
 10 61  1  0  0  0  0
 11 29  1  0  0  0  0
 11 62  1  0  0  0  0
 12 31  1  0  0  0  0
 12 64  1  0  0  0  0
 13 32  1  0  0  0  0
 13 65  1  0  0  0  0
 14 33  2  0  0  0  0
 15 17  1  0  0  0  0
 15 25  1  0  0  0  0
 15 38  1  0  0  0  0
 16 18  1  0  0  0  0
 16 26  1  0  0  0  0
 16 39  1  0  0  0  0
 17 19  1  0  0  0  0
 17 40  1  0  0  0  0
 18 20  1  0  0  0  0
 18 41  1  0  0  0  0
 19 21  1  0  0  0  0
 19 42  1  0  0  0  0
 20 22  1  0  0  0  0
 20 43  1  0  0  0  0
 21 23  1  0  0  0  0
 21 44  1  0  0  0  0
 22 24  1  0  0  0  0
 22 45  1  0  0  0  0
 23 31  1  0  0  0  0
 23 46  1  0  0  0  0
 24 32  1  0  0  0  0
 24 47  1  0  0  0  0
 25 27  2  0  0  0  0
 25 29  1  0  0  0  0
 26 27  1  0  0  0  0
 26 28  2  0  0  0  0
 28 30  1  0  0  0  0
 29 30  2  0  0  0  0
 30 33  1  0  0  0  0
 31 48  1  0  0  0  0
 31 49  1  0  0  0  0
 32 50  1  0  0  0  0
 32 51  1  0  0  0  0
 33 34  1  0  0  0  0
 34 35  1  0  0  0  0
 34 59  1  0  0  0  0
 34 60  1  0  0  0  0
 35 36  1  0  0  0  0
 35 37  1  0  0  0  0
 35 63  1  0  0  0  0
 36 66  1  0  0  0  0
 36 67  1  0  0  0  0
 36 68  1  0  0  0  0
 37 69  1  0  0  0  0
 37 70  1  0  0  0  0
 37 71  1  0  0  0  0
M  END
> <PUBCHEM_COMPOUND_CID>
25001841

> <PUBCHEM_CONFORMER_RMSD>
1

> <PUBCHEM_CONFORMER_DIVERSEORDER>
2
26
37
29
59
53
33
41
47
46
61
48
65
36
49
51
23
57
54
24
31
42
30
55
40
21
60
28
62
45
17
52
64
20
43
32
10
63
16
35
22
3
50
19
58
38
34
27
56
13
39
12
18
1
25
44
4
14
11
7
8
15
6
5
9

> <PUBCHEM_MMFF94_PARTIAL_CHARGES>
45
1 -0.56
10 -0.53
11 -0.53
12 -0.68
13 -0.68
14 -0.57
15 0.42
16 0.42
17 0.28
18 0.28
19 0.28
2 -0.56
20 0.28
21 0.28
22 0.28
23 0.28
24 0.28
25 -0.14
26 -0.14
27 0.08
28 0.08
29 0.08
3 -0.68
30 0.09
31 0.28
32 0.28
33 0.42
34 0.06
4 -0.68
5 -0.68
52 0.4
53 0.4
54 0.4
55 0.4
56 0.4
57 0.4
58 0.45
6 -0.68
61 0.45
62 0.45
64 0.4
65 0.4
7 -0.68
8 -0.68
9 -0.53

> <PUBCHEM_EFFECTIVE_ROTOR_COUNT>
9.4

> <PUBCHEM_PHARMACOPHORE_FEATURES>
26
1 1 acceptor
1 10 donor
1 11 donor
1 12 acceptor
1 12 donor
1 13 acceptor
1 13 donor
1 14 acceptor
1 2 acceptor
1 3 acceptor
1 3 donor
1 4 acceptor
1 4 donor
1 5 acceptor
1 5 donor
1 6 acceptor
1 6 donor
1 7 acceptor
1 7 donor
1 8 acceptor
1 8 donor
1 9 donor
3 35 36 37 hydrophobe
6 1 15 17 19 21 23 rings
6 2 16 18 20 22 24 rings
6 25 26 27 28 29 30 rings

> <PUBCHEM_HEAVY_ATOM_COUNT>
37

> <PUBCHEM_ATOM_DEF_STEREO_COUNT>
9

> <PUBCHEM_ATOM_UDEF_STEREO_COUNT>
1

> <PUBCHEM_BOND_DEF_STEREO_COUNT>
0

> <PUBCHEM_BOND_UDEF_STEREO_COUNT>
0

> <PUBCHEM_ISOTOPIC_ATOM_COUNT>
0

> <PUBCHEM_COMPONENT_COUNT>
1

> <PUBCHEM_CACTVS_TAUTO_COUNT>
25

> <PUBCHEM_CONFORMER_ID>
017D7F7100000002

> <PUBCHEM_MMFF94_ENERGY>
118.4297

> <PUBCHEM_FEATURE_SELFOVERLAP>
132.006

> <PUBCHEM_SHAPE_FINGERPRINT>
10074138 170 17902478564124705578
10190206 1 18187940469684595718
10411042 1 18337115678273593466
10815517 723 18270408191820060545
1100329 8 18408887343527181497
11115154 58 17986647416809196069
11331351 85 18131355228166478035
11991303 11 18051143488461758998
12156800 1 17981641236392210429
12160290 23 18053637236509750506
12440605 4 18193582123169375712
12788726 201 18261104141463816818
131258 43 18197512920562056228
13140716 1 18337660997211678578
13540713 4 17916850341558662898
13690498 29 18271534122245654086
13757389 114 18124052134744113876
13911987 19 17760366596326135196
140371 6 18192153913614967400
14068700 686 18413392043283468654
14508225 48 18410853295981616142
14556957 393 18189638136800911238
14790565 3 17616537255355172418
14856354 85 16882489110912393224
14866123 147 18195530285769068930
15081414 286 18121499313356612738
15082195 135 17619604214451064863
15198563 99 18410014312833285548
15775530 1 18057018282405428400
15927050 60 17835519315242746434
16087824 20 18336831867293349785
17138139 8 17479686648015658845
20101258 96 18336000717652968602
21033648 29 16536785501230694225
21120745 212 18338248119499744636
21133410 32 15504651748410127538
22223350 30 18052802673557929258
23536364 44 18263066777976788559
23559900 14 18118673555187991083
24771750 20 17179412586644240380
255183 313 18125174731303803656
3178227 256 16970559807192203186
3388396 114 18046935898619083924
3610482 184 17753646493453456006
4353968 344 18338248129017835110
4461854 278 17980790163670628625
508180 173 18193247833617505687
5969126 39 18413670215087444070
613672 6 18266162002436596746
6669772 16 17405148426944051670
9658208 31 17911790285546234578

> <PUBCHEM_SHAPE_MULTIPOLES>
679.27
9.76
8.46
1.87
18.07
6.17
-0.14
-7.64
-3.43
-11.35
-0.35
-1.83
-0.15
-2.07

> <PUBCHEM_SHAPE_SELFOVERLAP>
1437.871

> <PUBCHEM_SHAPE_VOLUME>
374.9

> <PUBCHEM_COORDINATE_TYPE>
2
5
10

$$$$
