25220884
  -OEChem-03112307003D

 35 35  0     1  0  0  0  0  0999 V2000
    1.0368    1.9040   -0.8226 O   0  0  0  0  0  0  0  0  0  0  0  0
   -2.0421   -2.3232    0.0004 O   0  0  0  0  0  0  0  0  0  0  0  0
    0.0530   -1.4112   -0.2778 N   0  0  0  0  0  0  0  0  0  0  0  0
   -1.0079    1.0116   -0.2566 N   0  0  0  0  0  0  0  0  0  0  0  0
    0.9761   -0.3459    0.0850 C   0  0  1  0  0  0  0  0  0  0  0  0
   -1.7303    0.0241    0.5318 C   0  0  1  0  0  0  0  0  0  0  0  0
    2.3582   -0.5913   -0.4986 C   0  0  0  0  0  0  0  0  0  0  0  0
   -3.2335    0.2223    0.4213 C   0  0  0  0  0  0  0  0  0  0  0  0
    3.4637    0.2584    0.1540 C   0  0  0  0  0  0  0  0  0  0  0  0
    0.3678    0.9554   -0.4200 C   0  0  0  0  0  0  0  0  0  0  0  0
   -1.2983   -1.3456    0.0263 C   0  0  0  0  0  0  0  0  0  0  0  0
   -3.6432    1.5909    0.9678 C   0  0  0  0  0  0  0  0  0  0  0  0
   -3.6971    0.0686   -1.0280 C   0  0  0  0  0  0  0  0  0  0  0  0
    3.5939   -0.0088    1.6541 C   0  0  0  0  0  0  0  0  0  0  0  0
    4.8028   -0.0092   -0.5371 C   0  0  0  0  0  0  0  0  0  0  0  0
    0.9882   -0.3173    1.1783 H   0  0  0  0  0  0  0  0  0  0  0  0
   -1.4021    0.1189    1.5743 H   0  0  0  0  0  0  0  0  0  0  0  0
    2.6216   -1.6512   -0.3785 H   0  0  0  0  0  0  0  0  0  0  0  0
    2.3447   -0.4059   -1.5810 H   0  0  0  0  0  0  0  0  0  0  0  0
   -3.7397   -0.5444    1.0223 H   0  0  0  0  0  0  0  0  0  0  0  0
    3.2450    1.3233    0.0224 H   0  0  0  0  0  0  0  0  0  0  0  0
    0.4276   -2.3125   -0.5589 H   0  0  0  0  0  0  0  0  0  0  0  0
   -1.4641    1.8788   -0.5205 H   0  0  0  0  0  0  0  0  0  0  0  0
   -3.2943    2.4191    0.3437 H   0  0  0  0  0  0  0  0  0  0  0  0
   -3.2582    1.7386    1.9824 H   0  0  0  0  0  0  0  0  0  0  0  0
   -4.7355    1.6642    1.0173 H   0  0  0  0  0  0  0  0  0  0  0  0
   -3.2424    0.8133   -1.6898 H   0  0  0  0  0  0  0  0  0  0  0  0
   -4.7828    0.2094   -1.0878 H   0  0  0  0  0  0  0  0  0  0  0  0
   -3.4884   -0.9217   -1.4407 H   0  0  0  0  0  0  0  0  0  0  0  0
    3.6974   -1.0793    1.8606 H   0  0  0  0  0  0  0  0  0  0  0  0
    2.7306    0.3683    2.2096 H   0  0  0  0  0  0  0  0  0  0  0  0
    4.4756    0.4976    2.0626 H   0  0  0  0  0  0  0  0  0  0  0  0
    5.1060   -1.0558   -0.4252 H   0  0  0  0  0  0  0  0  0  0  0  0
    5.5934    0.6193   -0.1132 H   0  0  0  0  0  0  0  0  0  0  0  0
    4.7395    0.2137   -1.6075 H   0  0  0  0  0  0  0  0  0  0  0  0
  1 10  2  0  0  0  0
  2 11  2  0  0  0  0
  3  5  1  0  0  0  0
  3 11  1  0  0  0  0
  3 22  1  0  0  0  0
  4  6  1  0  0  0  0
  4 10  1  0  0  0  0
  4 23  1  0  0  0  0
  5  7  1  0  0  0  0
  5 10  1  0  0  0  0
  5 16  1  0  0  0  0
  6  8  1  0  0  0  0
  6 11  1  0  0  0  0
  6 17  1  0  0  0  0
  7  9  1  0  0  0  0
  7 18  1  0  0  0  0
  7 19  1  0  0  0  0
  8 12  1  0  0  0  0
  8 13  1  0  0  0  0
  8 20  1  0  0  0  0
  9 14  1  0  0  0  0
  9 15  1  0  0  0  0
  9 21  1  0  0  0  0
 12 24  1  0  0  0  0
 12 25  1  0  0  0  0
 12 26  1  0  0  0  0
 13 27  1  0  0  0  0
 13 28  1  0  0  0  0
 13 29  1  0  0  0  0
 14 30  1  0  0  0  0
 14 31  1  0  0  0  0
 14 32  1  0  0  0  0
 15 33  1  0  0  0  0
 15 34  1  0  0  0  0
 15 35  1  0  0  0  0
M  END
> <PUBCHEM_COMPOUND_CID>
25220884

> <PUBCHEM_CONFORMER_RMSD>
0.6

> <PUBCHEM_CONFORMER_DIVERSEORDER>
1
7
10
5
13
8
14
4
16
6
9
18
11
12
2
17
3
15

> <PUBCHEM_MMFF94_PARTIAL_CHARGES>
10
1 -0.57
10 0.57
11 0.57
2 -0.57
22 0.37
23 0.37
3 -0.73
4 -0.73
5 0.36
6 0.36

> <PUBCHEM_EFFECTIVE_ROTOR_COUNT>
3.8

> <PUBCHEM_PHARMACOPHORE_FEATURES>
7
1 1 acceptor
1 2 acceptor
1 3 donor
1 4 donor
3 8 12 13 hydrophobe
3 9 14 15 hydrophobe
6 3 4 5 6 10 11 rings

> <PUBCHEM_HEAVY_ATOM_COUNT>
15

> <PUBCHEM_ATOM_DEF_STEREO_COUNT>
2

> <PUBCHEM_ATOM_UDEF_STEREO_COUNT>
0

> <PUBCHEM_BOND_DEF_STEREO_COUNT>
0

> <PUBCHEM_BOND_UDEF_STEREO_COUNT>
0

> <PUBCHEM_ISOTOPIC_ATOM_COUNT>
0

> <PUBCHEM_COMPONENT_COUNT>
1

> <PUBCHEM_CACTVS_TAUTO_COUNT>
4

> <PUBCHEM_CONFORMER_ID>
0180D71400000001

> <PUBCHEM_MMFF94_ENERGY>
42.5103

> <PUBCHEM_FEATURE_SELFOVERLAP>
35.529

> <PUBCHEM_SHAPE_FINGERPRINT>
10130415 120 18040155119371859660
11132069 177 18408879651071598416
11543360 7 15769761451622191885
12119455 92 17060053705778484804
12251169 10 18408610274669698505
124424 183 17312817165391468605
12500047 106 18130790053288076522
12932764 1 17603860131020819388
13140716 1 18263652916590268889
13380535 76 18413108351101391455
13583140 156 16950285122018692881
14144814 61 18335140877568317873
14178342 30 18411411847651792586
14911166 2 18408317791876366351
14993402 34 18408037411857846581
15209294 21 18058453110314060873
15375462 189 17675921006529851760
16945 1 18335143072475902213
18175812 5 18060137665502044326
18186145 218 17489305248337897368
18511873 20 18261114083959120009
19026448 4 16558746810631936996
200 152 16056878026816255702
20528008 55 18273491277979233746
20645477 70 15936958666083641370
21339142 149 17846493747268465763
21501502 16 18118692242611210445
22485316 2 15213019349393654816
22892500 29 17131829850862700392
23402539 116 18202278070053468269
23557571 272 17703518786783492831
23559900 14 18273501152752677622
2748010 2 18193282020718164695
4072396 5 18042107779082108105
69090 78 18130783456075891823
74978 22 18262237849325154437
90316 7 18114447990590066016

> <PUBCHEM_SHAPE_MULTIPOLES>
286.99
7.85
1.64
1.06
3.95
0.33
-0.23
-1.26
-0.63
-1.17
0.05
0.32
-0.2
-0.34

> <PUBCHEM_SHAPE_SELFOVERLAP>
569.173

> <PUBCHEM_SHAPE_VOLUME>
170

> <PUBCHEM_COORDINATE_TYPE>
2
5
10

$$$$
