351830
  -OEChem-03112307233D

 40 40  0     1  0  0  0  0  0999 V2000
    2.0819    0.5789    1.5648 O   0  0  0  0  0  0  0  0  0  0  0  0
    1.9588    3.5029   -0.4164 O   0  0  0  0  0  0  0  0  0  0  0  0
    0.1366    4.3995    0.5767 O   0  0  0  0  0  0  0  0  0  0  0  0
    0.1262   -2.8421    0.1599 O   0  0  0  0  0  0  0  0  0  0  0  0
   -4.6968   -2.1989    0.4074 O   0  0  0  0  0  0  0  0  0  0  0  0
    1.8412   -4.0145   -0.7587 O   0  0  0  0  0  0  0  0  0  0  0  0
    1.0254    1.0620   -0.4467 N   0  0  0  0  0  0  0  0  0  0  0  0
    3.9526    0.2591   -0.9518 N   0  0  0  0  0  0  0  0  0  0  0  0
    0.0869    2.0368    0.0610 C   0  0  2  0  0  0  0  0  0  0  0  0
    2.8391   -0.5426   -0.4412 C   0  0  1  0  0  0  0  0  0  0  0  0
   -1.1978    2.0655   -0.7771 C   0  0  0  0  0  0  0  0  0  0  0  0
    3.3915   -1.6848    0.4246 C   0  0  0  0  0  0  0  0  0  0  0  0
    1.9514    0.4098    0.3541 C   0  0  0  0  0  0  0  0  0  0  0  0
   -2.1338    0.9242   -0.4599 C   0  0  0  0  0  0  0  0  0  0  0  0
    2.3045   -2.5301    1.0884 C   0  0  0  0  0  0  0  0  0  0  0  0
    0.7106    3.4241    0.1037 C   0  0  0  0  0  0  0  0  0  0  0  0
   -2.0188   -0.2639   -1.1634 C   0  0  0  0  0  0  0  0  0  0  0  0
   -3.0912    1.0867    0.5286 C   0  0  0  0  0  0  0  0  0  0  0  0
    1.4261   -3.2180    0.0735 C   0  0  0  0  0  0  0  0  0  0  0  0
   -2.8845   -1.3178   -0.8706 C   0  0  0  0  0  0  0  0  0  0  0  0
   -3.9567    0.0327    0.8213 C   0  0  0  0  0  0  0  0  0  0  0  0
   -3.8533   -1.1696    0.1218 C   0  0  0  0  0  0  0  0  0  0  0  0
   -0.1319    1.7763    1.1047 H   0  0  0  0  0  0  0  0  0  0  0  0
    2.2756   -0.9504   -1.2878 H   0  0  0  0  0  0  0  0  0  0  0  0
   -0.9604    2.0619   -1.8500 H   0  0  0  0  0  0  0  0  0  0  0  0
   -1.7415    3.0061   -0.6146 H   0  0  0  0  0  0  0  0  0  0  0  0
    4.0353   -1.2827    1.2183 H   0  0  0  0  0  0  0  0  0  0  0  0
    4.0259   -2.3325   -0.1946 H   0  0  0  0  0  0  0  0  0  0  0  0
    1.0576    0.9131   -1.4512 H   0  0  0  0  0  0  0  0  0  0  0  0
    2.7618   -3.3126    1.7051 H   0  0  0  0  0  0  0  0  0  0  0  0
    1.6849   -1.9344    1.7660 H   0  0  0  0  0  0  0  0  0  0  0  0
    4.5700   -0.3324   -1.5073 H   0  0  0  0  0  0  0  0  0  0  0  0
    4.5198    0.6000   -0.1758 H   0  0  0  0  0  0  0  0  0  0  0  0
   -1.2677   -0.3900   -1.9377 H   0  0  0  0  0  0  0  0  0  0  0  0
   -3.1778    2.0181    1.0805 H   0  0  0  0  0  0  0  0  0  0  0  0
   -2.7929   -2.2495   -1.4225 H   0  0  0  0  0  0  0  0  0  0  0  0
   -4.7089    0.1539    1.5961 H   0  0  0  0  0  0  0  0  0  0  0  0
    2.3210    4.4131   -0.3644 H   0  0  0  0  0  0  0  0  0  0  0  0
   -0.4292   -3.2877   -0.5147 H   0  0  0  0  0  0  0  0  0  0  0  0
   -4.4830   -2.9512   -0.1707 H   0  0  0  0  0  0  0  0  0  0  0  0
  1 13  2  0  0  0  0
  2 16  1  0  0  0  0
  2 38  1  0  0  0  0
  3 16  2  0  0  0  0
  4 19  1  0  0  0  0
  4 39  1  0  0  0  0
  5 22  1  0  0  0  0
  5 40  1  0  0  0  0
  6 19  2  0  0  0  0
  7  9  1  0  0  0  0
  7 13  1  0  0  0  0
  7 29  1  0  0  0  0
  8 10  1  0  0  0  0
  8 32  1  0  0  0  0
  8 33  1  0  0  0  0
  9 11  1  0  0  0  0
  9 16  1  0  0  0  0
  9 23  1  0  0  0  0
 10 12  1  0  0  0  0
 10 13  1  0  0  0  0
 10 24  1  0  0  0  0
 11 14  1  0  0  0  0
 11 25  1  0  0  0  0
 11 26  1  0  0  0  0
 12 15  1  0  0  0  0
 12 27  1  0  0  0  0
 12 28  1  0  0  0  0
 14 17  2  0  0  0  0
 14 18  1  0  0  0  0
 15 19  1  0  0  0  0
 15 30  1  0  0  0  0
 15 31  1  0  0  0  0
 17 20  1  0  0  0  0
 17 34  1  0  0  0  0
 18 21  2  0  0  0  0
 18 35  1  0  0  0  0
 20 22  2  0  0  0  0
 20 36  1  0  0  0  0
 21 22  1  0  0  0  0
 21 37  1  0  0  0  0
M  END
> <PUBCHEM_COMPOUND_CID>
351830

> <PUBCHEM_CONFORMER_RMSD>
0.8

> <PUBCHEM_CONFORMER_DIVERSEORDER>
1
435
420
401
333
127
15
14
160
213
400
166
229
475
113
147
25
304
66
430
473
308
234
103
321
144
271
93
84
65
491
154
292
410
457
471
385
158
138
105
169
12
6
278
249
100
411
361
412
344
168
177
211
83
459
207
429
101
74
287
233
235
360
406
315
379
33
407
252
89
286
476
393
98
102
482
276
80
43
423
114
465
299
432
262
354
200
285
202
181
376
390
109
259
305
20
184
455
7
260
132
219
316
452
152
246
302
10
212
106
38
417
366
39
95
36
356
487
345
284
136
185
225
87
227
322
178
298
493
336
275
348
188
148
402
151
378
72
195
295
442
445
314
42
3
309
342
231
46
449
111
18
414
426
232
180
58
140
135
424
301
209
240
388
415
44
440
108
24
217
372
311
382
307
352
351
218
481
13
413
450
172
317
280
328
368
451
182
27
258
479
92
245
268
139
32
22
23
173
21
153
201
458
19
179
324
288
267
274
60
175
383
446
398
210
441
433
279
203
323
313
480
137
56
26
419
57
45
469
409
16
62
55
474
164
59
216
118
82
236
247
296
141
408
30
120
358
155
243
117
472
50
373
112
191
341
312
9
394
294
405
128
61
47
404
145
230
110
176
99
391
37
190
220
499
492
205
187
453
5
338
85
389
91
104
124
68
122
464
264
346
434
349
327
331
347
2
49
300
291
48
282
63
329
54
31
460
255
130
448
35
387
17
396
461
399
189
241
490
403
64
297
215
133
498
149
143
269
318
254
196
497
496
485
165
67
52
325
467
115
330
283
4
11
69
221
484
131
162
443
428
81
197
86
263
384
367
266
427
150
456
125
438
359
339
41
76
163
470
369
8
239
466
444
134
156
326
146
281
53
439
478
397
77
350
447
332
386
422
253
97
121
238
425
319
357
71
107
167
486
488
183
416
273
244
257
272
242
431
293
421
171
463
436
477
392
395
250
123
159
495
94
370
365
204
468
194
40
222
277
28
88
224
116
248
192
261
270
34
186
375
377
320
371
374
208
489
303
126
78
119
51
462
193
362
381
343
237
355
199
73
353
418
75
256
96
310
226
142
157
174
223
335
70
494
483
334
337
170
198
79
437
228
290
364
29
306
161
340
289
251
206
380
214
90
265
129
454
363

> <PUBCHEM_MMFF94_PARTIAL_CHARGES>
31
1 -0.57
10 0.33
11 0.14
13 0.57
14 -0.14
15 0.06
16 0.66
17 -0.15
18 -0.15
19 0.66
2 -0.65
20 -0.15
21 -0.15
22 0.08
29 0.37
3 -0.57
32 0.36
33 0.36
34 0.15
35 0.15
36 0.15
37 0.15
38 0.5
39 0.5
4 -0.65
40 0.45
5 -0.53
6 -0.57
7 -0.73
8 -0.99
9 0.36

> <PUBCHEM_EFFECTIVE_ROTOR_COUNT>
9

> <PUBCHEM_PHARMACOPHORE_FEATURES>
12
1 1 acceptor
1 2 acceptor
1 3 acceptor
1 4 acceptor
1 5 donor
1 6 acceptor
1 7 donor
1 8 cation
1 8 donor
3 2 3 16 anion
3 4 6 19 anion
6 14 17 18 20 21 22 rings

> <PUBCHEM_HEAVY_ATOM_COUNT>
22

> <PUBCHEM_ATOM_DEF_STEREO_COUNT>
0

> <PUBCHEM_ATOM_UDEF_STEREO_COUNT>
2

> <PUBCHEM_BOND_DEF_STEREO_COUNT>
0

> <PUBCHEM_BOND_UDEF_STEREO_COUNT>
0

> <PUBCHEM_ISOTOPIC_ATOM_COUNT>
0

> <PUBCHEM_COMPONENT_COUNT>
1

> <PUBCHEM_CACTVS_TAUTO_COUNT>
4

> <PUBCHEM_CONFORMER_ID>
00055E5600000001

> <PUBCHEM_MMFF94_ENERGY>
38.1666

> <PUBCHEM_FEATURE_SELFOVERLAP>
61.016

> <PUBCHEM_SHAPE_FINGERPRINT>
10616163 171 18194402182543626414
1100329 8 18050564342344990944
12506688 2 18338232652694328816
12553582 1 18338794520321266388
13140716 1 17903912610523408419
13533116 47 18268149950056630003
138480 1 18410291410795014027
14178342 30 18341317929730390137
14251705 54 18336542720618805571
14251757 5 17118341896601303430
15422964 175 18338790105126735901
17138139 8 16547185734130387863
19591789 44 18120659281998728532
19930381 70 18265334078775597099
20291156 8 18337671923286550289
20645477 70 18117823611920449589
2255824 54 18338236092995067300
3117164 225 18267044812163881507
314173 41 18411426072498496173
3737641 26 18268166265788477094
5309563 4 18410289212120489703
6287921 2 18199744902711296227
6443956 14 18336263449345069469
7097593 13 18412832369783263921
81228 2 17833806310301748136

> <PUBCHEM_SHAPE_MULTIPOLES>
407.57
6.98
5.1
1.04
3.06
2.06
-0.05
-4.98
-0.58
-1.99
-0.16
-0.08
-0.09
-0.14

> <PUBCHEM_SHAPE_SELFOVERLAP>
835.641

> <PUBCHEM_SHAPE_VOLUME>
232.8

> <PUBCHEM_COORDINATE_TYPE>
2
5
10

$$$$
