442089
  -OEChem-03112307272D

116122  0     1  0  0  0  0  0999 V2000
    6.8671   -2.6210    0.0000 O   0  0  0  0  0  0  0  0  0  0  0  0
   10.1678    4.2290    0.0000 O   0  0  0  0  0  0  0  0  0  0  0  0
    8.4778    4.6079    0.0000 O   0  0  0  0  0  0  0  0  0  0  0  0
    5.1350   -2.6210    0.0000 O   0  0  0  0  0  0  0  0  0  0  0  0
    6.8671   -4.6210    0.0000 O   0  0  0  0  0  0  0  0  0  0  0  0
    9.6509    5.8821    0.0000 O   0  0  0  0  0  0  0  0  0  0  0  0
    5.1350   -5.6210    0.0000 O   0  0  0  0  0  0  0  0  0  0  0  0
    3.4030   -4.6210    0.0000 O   0  0  0  0  0  0  0  0  0  0  0  0
   12.0767    4.8259    0.0000 O   0  0  0  0  0  0  0  0  0  0  0  0
    6.0010   -6.1210    0.0000 O   0  0  0  0  0  0  0  0  0  0  0  0
    2.5369   -3.1210    0.0000 O   0  0  0  0  0  0  0  0  0  0  0  0
   12.5142    6.7774    0.0000 O   0  0  0  0  0  0  0  0  0  0  0  0
   11.0429    8.1321    0.0000 O   0  0  0  0  0  0  0  0  0  0  0  0
    8.5991   -5.6210    0.0000 O   0  0  0  0  0  0  0  0  0  0  0  0
    8.5991   -7.6210    0.0000 O   0  0  0  0  0  0  0  0  0  0  0  0
    9.3528    8.5110    0.0000 O   0  0  0  0  0  0  0  0  0  0  0  0
    6.8671   -8.6210    0.0000 O   0  0  0  0  0  0  0  0  0  0  0  0
    4.2690   -7.1210    0.0000 O   0  0  0  0  0  0  0  0  0  0  0  0
    6.8671    0.6260    0.0000 C   0  0  2  0  0  0  0  0  0  0  0  0
    7.8420    0.4035    0.0000 C   0  0  2  0  0  0  0  0  0  0  0  0
    8.5622    1.1561    0.0000 C   0  0  1  0  0  0  0  0  0  0  0  0
    8.2628    2.1538    0.0000 C   0  0  2  0  0  0  0  0  0  0  0  0
    7.2331   -0.4975    0.0000 C   0  0  0  0  0  0  0  0  0  0  0  0
    6.8671   -1.6210    0.0000 C   0  0  2  0  0  0  0  0  0  0  0  0
    6.5447    1.6165    0.0000 C   0  0  0  0  0  0  0  0  0  0  0  0
    8.2759   -0.4975    0.0000 C   0  0  0  0  0  0  0  0  0  0  0  0
    6.0852    0.0025    0.0000 C   0  0  0  0  0  0  0  0  0  0  0  0
    7.2473    2.3855    0.0000 C   0  0  0  0  0  0  0  0  0  0  0  0
    8.9946    2.9548    0.0000 C   0  0  2  0  0  0  0  0  0  0  0  0
    9.6141    0.8902    0.0000 C   0  0  0  0  0  0  0  0  0  0  0  0
    7.8420   -1.3984    0.0000 C   0  0  0  0  0  0  0  0  0  0  0  0
    6.0852   -0.9975    0.0000 C   0  0  0  0  0  0  0  0  0  0  0  0
    9.1598    0.3543    0.0000 C   0  0  0  0  0  0  0  0  0  0  0  0
   10.0524    2.7133    0.0000 C   0  0  0  0  0  0  0  0  0  0  0  0
   10.3643    1.6741    0.0000 C   0  0  0  0  0  0  0  0  0  0  0  0
    8.2590    3.6321    0.0000 C   0  0  0  0  0  0  0  0  0  0  0  0
    9.2134    3.9306    0.0000 C   0  0  0  0  0  0  0  0  0  0  0  0
    5.1843   -1.4313    0.0000 C   0  0  0  0  0  0  0  0  0  0  0  0
    6.0010   -3.1210    0.0000 C   0  0  2  0  0  0  0  0  0  0  0  0
    6.0010   -4.1210    0.0000 C   0  0  1  0  0  0  0  0  0  0  0  0
    5.1350   -4.6210    0.0000 C   0  0  2  0  0  0  0  0  0  0  0  0
   10.3866    5.2048    0.0000 C   0  0  2  0  0  0  0  0  0  0  0  0
    4.2690   -3.1210    0.0000 C   0  0  1  0  0  0  0  0  0  0  0  0
    4.2690   -4.1210    0.0000 C   0  0  1  0  0  0  0  0  0  0  0  0
   11.3410    5.5032    0.0000 C   0  0  1  0  0  0  0  0  0  0  0  0
    3.4030   -2.6210    0.0000 C   0  0  0  0  0  0  0  0  0  0  0  0
    6.8671   -5.6210    0.0000 C   0  0  2  0  0  0  0  0  0  0  0  0
   11.5598    6.4790    0.0000 C   0  0  2  0  0  0  0  0  0  0  0  0
    9.8697    6.8579    0.0000 C   0  0  1  0  0  0  0  0  0  0  0  0
   10.8241    7.1563    0.0000 C   0  0  1  0  0  0  0  0  0  0  0  0
    7.7331   -6.1210    0.0000 C   0  0  1  0  0  0  0  0  0  0  0  0
    7.7331   -7.1210    0.0000 C   0  0  2  0  0  0  0  0  0  0  0  0
    9.1340    7.5352    0.0000 C   0  0  0  0  0  0  0  0  0  0  0  0
    6.0010   -7.1210    0.0000 C   0  0  1  0  0  0  0  0  0  0  0  0
    6.8671   -7.6210    0.0000 C   0  0  1  0  0  0  0  0  0  0  0  0
    5.1350   -7.6210    0.0000 C   0  0  0  0  0  0  0  0  0  0  0  0
    8.6707    0.2144    0.0000 H   0  0  0  0  0  0  0  0  0  0  0  0
    8.0092    2.9650    0.0000 H   0  0  0  0  0  0  0  0  0  0  0  0
    7.7346   -0.8620    0.0000 H   0  0  0  0  0  0  0  0  0  0  0  0
    7.7346   -0.1329    0.0000 H   0  0  0  0  0  0  0  0  0  0  0  0
    6.1653    2.1069    0.0000 H   0  0  0  0  0  0  0  0  0  0  0  0
    5.9967    1.3266    0.0000 H   0  0  0  0  0  0  0  0  0  0  0  0
    8.7606   -0.8840    0.0000 H   0  0  0  0  0  0  0  0  0  0  0  0
    8.7606   -0.1109    0.0000 H   0  0  0  0  0  0  0  0  0  0  0  0
    5.8162    0.5611    0.0000 H   0  0  0  0  0  0  0  0  0  0  0  0
    5.4808   -0.1354    0.0000 H   0  0  0  0  0  0  0  0  0  0  0  0
    7.4867    2.9575    0.0000 H   0  0  0  0  0  0  0  0  0  0  0  0
    6.7248    2.7192    0.0000 H   0  0  0  0  0  0  0  0  0  0  0  0
    9.3616    0.3240    0.0000 H   0  0  0  0  0  0  0  0  0  0  0  0
   10.1288    0.5445    0.0000 H   0  0  0  0  0  0  0  0  0  0  0  0
    7.8420   -2.0184    0.0000 H   0  0  0  0  0  0  0  0  0  0  0  0
    8.4464   -1.5364    0.0000 H   0  0  0  0  0  0  0  0  0  0  0  0
    8.6627   -0.0162    0.0000 H   0  0  0  0  0  0  0  0  0  0  0  0
    9.5304   -0.1428    0.0000 H   0  0  0  0  0  0  0  0  0  0  0  0
    9.6569    0.7248    0.0000 H   0  0  0  0  0  0  0  0  0  0  0  0
   10.6680    2.7873    0.0000 H   0  0  0  0  0  0  0  0  0  0  0  0
   10.0849    3.3325    0.0000 H   0  0  0  0  0  0  0  0  0  0  0  0
   10.7322    1.1751    0.0000 H   0  0  0  0  0  0  0  0  0  0  0  0
   10.9189    1.9513    0.0000 H   0  0  0  0  0  0  0  0  0  0  0  0
    8.6789    4.0882    0.0000 H   0  0  0  0  0  0  0  0  0  0  0  0
    7.8029    4.0521    0.0000 H   0  0  0  0  0  0  0  0  0  0  0  0
    7.8390    3.1760    0.0000 H   0  0  0  0  0  0  0  0  0  0  0  0
    4.6720   -1.0821    0.0000 H   0  0  0  0  0  0  0  0  0  0  0  0
    5.1379   -2.0496    0.0000 H   0  0  0  0  0  0  0  0  0  0  0  0
    6.0010   -2.5010    0.0000 H   0  0  0  0  0  0  0  0  0  0  0  0
    6.0010   -4.7410    0.0000 H   0  0  0  0  0  0  0  0  0  0  0  0
    4.5981   -4.9310    0.0000 H   0  0  0  0  0  0  0  0  0  0  0  0
   10.8427    4.7848    0.0000 H   0  0  0  0  0  0  0  0  0  0  0  0
    4.2690   -2.5010    0.0000 H   0  0  0  0  0  0  0  0  0  0  0  0
    4.2690   -4.7410    0.0000 H   0  0  0  0  0  0  0  0  0  0  0  0
   11.9328    5.6882    0.0000 H   0  0  0  0  0  0  0  0  0  0  0  0
    3.8015   -2.1460    0.0000 H   0  0  0  0  0  0  0  0  0  0  0  0
    3.0044   -2.1460    0.0000 H   0  0  0  0  0  0  0  0  0  0  0  0
    7.4040   -5.3110    0.0000 H   0  0  0  0  0  0  0  0  0  0  0  0
    4.5981   -5.9310    0.0000 H   0  0  0  0  0  0  0  0  0  0  0  0
   11.6954    7.0840    0.0000 H   0  0  0  0  0  0  0  0  0  0  0  0
    9.2780    6.6728    0.0000 H   0  0  0  0  0  0  0  0  0  0  0  0
    3.4030   -5.2410    0.0000 H   0  0  0  0  0  0  0  0  0  0  0  0
   10.3680    7.5763    0.0000 H   0  0  0  0  0  0  0  0  0  0  0  0
    8.2700   -6.4310    0.0000 H   0  0  0  0  0  0  0  0  0  0  0  0
   12.6685    5.0109    0.0000 H   0  0  0  0  0  0  0  0  0  0  0  0
    2.0000   -2.8110    0.0000 H   0  0  0  0  0  0  0  0  0  0  0  0
    7.7331   -7.7410    0.0000 H   0  0  0  0  0  0  0  0  0  0  0  0
    8.5618    7.7738    0.0000 H   0  0  0  0  0  0  0  0  0  0  0  0
    8.7997    7.0131    0.0000 H   0  0  0  0  0  0  0  0  0  0  0  0
    5.4641   -6.8110    0.0000 H   0  0  0  0  0  0  0  0  0  0  0  0
   12.6499    7.3824    0.0000 H   0  0  0  0  0  0  0  0  0  0  0  0
    7.4040   -7.9310    0.0000 H   0  0  0  0  0  0  0  0  0  0  0  0
   11.6346    8.3171    0.0000 H   0  0  0  0  0  0  0  0  0  0  0  0
    9.1360   -5.9310    0.0000 H   0  0  0  0  0  0  0  0  0  0  0  0
    4.7365   -8.0959    0.0000 H   0  0  0  0  0  0  0  0  0  0  0  0
    5.5335   -8.0959    0.0000 H   0  0  0  0  0  0  0  0  0  0  0  0
    8.5991   -8.2410    0.0000 H   0  0  0  0  0  0  0  0  0  0  0  0
    8.8967    8.9310    0.0000 H   0  0  0  0  0  0  0  0  0  0  0  0
    6.3301   -8.9310    0.0000 H   0  0  0  0  0  0  0  0  0  0  0  0
    3.7320   -7.4310    0.0000 H   0  0  0  0  0  0  0  0  0  0  0  0
 24  1  1  6  0  0  0
 39  1  1  1  0  0  0
  2 37  1  0  0  0  0
 42  2  1  6  0  0  0
  3 37  2  0  0  0  0
  4 39  1  0  0  0  0
  4 43  1  0  0  0  0
 40  5  1  6  0  0  0
 47  5  1  1  0  0  0
  6 42  1  0  0  0  0
  6 49  1  0  0  0  0
 41  7  1  1  0  0  0
  7 95  1  0  0  0  0
 44  8  1  6  0  0  0
  8 98  1  0  0  0  0
 45  9  1  1  0  0  0
  9101  1  0  0  0  0
 10 47  1  0  0  0  0
 10 54  1  0  0  0  0
 11 46  1  0  0  0  0
 11102  1  0  0  0  0
 48 12  1  6  0  0  0
 12107  1  0  0  0  0
 50 13  1  1  0  0  0
 13109  1  0  0  0  0
 51 14  1  6  0  0  0
 14110  1  0  0  0  0
 52 15  1  1  0  0  0
 15113  1  0  0  0  0
 16 53  1  0  0  0  0
 16114  1  0  0  0  0
 55 17  1  6  0  0  0
 17115  1  0  0  0  0
 18 56  1  0  0  0  0
 18116  1  0  0  0  0
 19 20  1  0  0  0  0
 19 23  1  0  0  0  0
 19 25  1  6  0  0  0
 19 27  1  0  0  0  0
 20 21  1  0  0  0  0
 20 26  1  0  0  0  0
 20 57  1  1  0  0  0
 21 22  1  0  0  0  0
 21 30  1  0  0  0  0
 21 33  1  6  0  0  0
 22 28  1  0  0  0  0
 22 29  1  0  0  0  0
 22 58  1  1  0  0  0
 23 24  1  0  0  0  0
 23 59  1  0  0  0  0
 23 60  1  0  0  0  0
 24 31  1  0  0  0  0
 24 32  1  0  0  0  0
 25 28  1  0  0  0  0
 25 61  1  0  0  0  0
 25 62  1  0  0  0  0
 26 31  1  0  0  0  0
 26 63  1  0  0  0  0
 26 64  1  0  0  0  0
 27 32  1  0  0  0  0
 27 65  1  0  0  0  0
 27 66  1  0  0  0  0
 28 67  1  0  0  0  0
 28 68  1  0  0  0  0
 29 34  1  0  0  0  0
 29 36  1  1  0  0  0
 29 37  1  0  0  0  0
 30 35  1  0  0  0  0
 30 69  1  0  0  0  0
 30 70  1  0  0  0  0
 31 71  1  0  0  0  0
 31 72  1  0  0  0  0
 32 38  2  0  0  0  0
 33 73  1  0  0  0  0
 33 74  1  0  0  0  0
 33 75  1  0  0  0  0
 34 35  1  0  0  0  0
 34 76  1  0  0  0  0
 34 77  1  0  0  0  0
 35 78  1  0  0  0  0
 35 79  1  0  0  0  0
 36 80  1  0  0  0  0
 36 81  1  0  0  0  0
 36 82  1  0  0  0  0
 38 83  1  0  0  0  0
 38 84  1  0  0  0  0
 39 40  1  0  0  0  0
 39 85  1  0  0  0  0
 40 41  1  0  0  0  0
 40 86  1  0  0  0  0
 41 44  1  0  0  0  0
 41 87  1  0  0  0  0
 42 45  1  0  0  0  0
 42 88  1  0  0  0  0
 43 44  1  0  0  0  0
 43 46  1  1  0  0  0
 43 89  1  0  0  0  0
 44 90  1  0  0  0  0
 45 48  1  0  0  0  0
 45 91  1  0  0  0  0
 46 92  1  0  0  0  0
 46 93  1  0  0  0  0
 47 51  1  0  0  0  0
 47 94  1  0  0  0  0
 48 50  1  0  0  0  0
 48 96  1  0  0  0  0
 49 50  1  0  0  0  0
 49 53  1  6  0  0  0
 49 97  1  0  0  0  0
 50 99  1  0  0  0  0
 51 52  1  0  0  0  0
 51100  1  0  0  0  0
 52 55  1  0  0  0  0
 52103  1  0  0  0  0
 53104  1  0  0  0  0
 53105  1  0  0  0  0
 54 55  1  0  0  0  0
 54 56  1  1  0  0  0
 54106  1  0  0  0  0
 55108  1  0  0  0  0
 56111  1  0  0  0  0
 56112  1  0  0  0  0
M  END
> <PUBCHEM_COMPOUND_CID>
442089

> <PUBCHEM_COMPOUND_CANONICALIZED>
1

> <PUBCHEM_CACTVS_COMPLEXITY>
1450

> <PUBCHEM_CACTVS_HBOND_ACCEPTOR>
18

> <PUBCHEM_CACTVS_HBOND_DONOR>
11

> <PUBCHEM_CACTVS_ROTATABLE_BOND>
10

> <PUBCHEM_CACTVS_SUBSKEYS>
AAADcfB8PgAAAAAAAAAAAAAAAAAAAYAAAAA0aNECBgAAAADAAAAAGgAACAAAD1SwgAMCCAAABgCIAgDSCAAAAAAgAAAAAAEAAAgRFBIAIQAiQAAFgAAHIAHI6PyPgAAAAAAAAADAAAYAACAAAYAAAAAAAA==

> <PUBCHEM_IUPAC_OPENEYE_NAME>
[(2S,3R,4S,5S,6R)-3,4,5-trihydroxy-6-(hydroxymethyl)tetrahydropyran-2-yl] (1R,4S,5R,9S,10R,13S)-13-[(2S,3R,4S,5S,6R)-4,5-dihydroxy-6-(hydroxymethyl)-3-[(2S,3R,4S,5S,6R)-3,4,5-trihydroxy-6-(hydroxymethyl)tetrahydropyran-2-yl]oxy-tetrahydropyran-2-yl]oxy-5,9-dimethyl-14-methylene-tetracyclo[11.2.1.01,10.04,9]hexadecane-5-carboxylate

> <PUBCHEM_IUPAC_CAS_NAME>
(1R,4S,5R,9S,10R,13S)-13-[[(2S,3R,4S,5S,6R)-4,5-dihydroxy-6-(hydroxymethyl)-3-[[(2S,3R,4S,5S,6R)-3,4,5-trihydroxy-6-(hydroxymethyl)-2-oxanyl]oxy]-2-oxanyl]oxy]-5,9-dimethyl-14-methylene-5-tetracyclo[11.2.1.01,10.04,9]hexadecanecarboxylic acid [(2S,3R,4S,5S,6R)-3,4,5-trihydroxy-6-(hydroxymethyl)-2-oxanyl] ester

> <PUBCHEM_IUPAC_NAME_MARKUP>
[(2<I>S</I>,3<I>R</I>,4<I>S</I>,5<I>S</I>,6<I>R</I>)-3,4,5-trihydroxy-6-(hydroxymethyl)oxan-2-yl] (1<I>R</I>,4<I>S</I>,5<I>R</I>,9<I>S</I>,10<I>R</I>,13<I>S</I>)-13-[(2<I>S</I>,3<I>R</I>,4<I>S</I>,5<I>S</I>,6<I>R</I>)-4,5-dihydroxy-6-(hydroxymethyl)-3-[(2<I>S</I>,3<I>R</I>,4<I>S</I>,5<I>S</I>,6<I>R</I>)-3,4,5-trihydroxy-6-(hydroxymethyl)oxan-2-yl]oxyoxan-2-yl]oxy-5,9-dimethyl-14-methylidenetetracyclo[11.2.1.0<SUP>1,10</SUP>.0<SUP>4,9</SUP>]hexadecane-5-carboxylate

> <PUBCHEM_IUPAC_NAME>
[(2S,3R,4S,5S,6R)-3,4,5-trihydroxy-6-(hydroxymethyl)oxan-2-yl] (1R,4S,5R,9S,10R,13S)-13-[(2S,3R,4S,5S,6R)-4,5-dihydroxy-6-(hydroxymethyl)-3-[(2S,3R,4S,5S,6R)-3,4,5-trihydroxy-6-(hydroxymethyl)oxan-2-yl]oxyoxan-2-yl]oxy-5,9-dimethyl-14-methylidenetetracyclo[11.2.1.01,10.04,9]hexadecane-5-carboxylate

> <PUBCHEM_IUPAC_SYSTEMATIC_NAME>
[(2S,3R,4S,5S,6R)-6-(hydroxymethyl)-3,4,5-tris(oxidanyl)oxan-2-yl] (1R,4S,5R,9S,10R,13S)-13-[(2S,3R,4S,5S,6R)-6-(hydroxymethyl)-3-[(2S,3R,4S,5S,6R)-6-(hydroxymethyl)-3,4,5-tris(oxidanyl)oxan-2-yl]oxy-4,5-bis(oxidanyl)oxan-2-yl]oxy-5,9-dimethyl-14-methylidene-tetracyclo[11.2.1.01,10.04,9]hexadecane-5-carboxylate

> <PUBCHEM_IUPAC_TRADITIONAL_NAME>
(1R,4S,5R,9S,10R,13S)-13-[(2S,3R,4S,5S,6R)-4,5-dihydroxy-6-methylol-3-[(2S,3R,4S,5S,6R)-3,4,5-trihydroxy-6-methylol-tetrahydropyran-2-yl]oxy-tetrahydropyran-2-yl]oxy-5,9-dimethyl-14-methylene-tetracyclo[11.2.1.01,10.04,9]hexadecane-5-carboxylic acid [(2S,3R,4S,5S,6R)-3,4,5-trihydroxy-6-methylol-tetrahydropyran-2-yl] ester

> <PUBCHEM_IUPAC_INCHI>
InChI=1S/C38H60O18/c1-16-11-37-9-5-20-35(2,7-4-8-36(20,3)34(50)55-32-29(49)26(46)23(43)18(13-40)52-32)21(37)6-10-38(16,15-37)56-33-30(27(47)24(44)19(14-41)53-33)54-31-28(48)25(45)22(42)17(12-39)51-31/h17-33,39-49H,1,4-15H2,2-3H3/t17-,18-,19-,20+,21+,22-,23-,24-,25+,26+,27+,28-,29-,30-,31+,32+,33+,35-,36-,37-,38+/m1/s1

> <PUBCHEM_IUPAC_INCHIKEY>
UEDUENGHJMELGK-HYDKPPNVSA-N

> <PUBCHEM_XLOGP3_AA>
-1.2

> <PUBCHEM_EXACT_MASS>
804.37796506

> <PUBCHEM_MOLECULAR_FORMULA>
C38H60O18

> <PUBCHEM_MOLECULAR_WEIGHT>
804.9

> <PUBCHEM_OPENEYE_CAN_SMILES>
CC12CCCC(C1CCC34C2CCC(C3)(C(=C)C4)OC5C(C(C(C(O5)CO)O)O)OC6C(C(C(C(O6)CO)O)O)O)(C)C(=O)OC7C(C(C(C(O7)CO)O)O)O

> <PUBCHEM_OPENEYE_ISO_SMILES>
C[C@@]12CCC[C@@]([C@H]1CC[C@]34[C@H]2CC[C@](C3)(C(=C)C4)O[C@H]5[C@@H]([C@H]([C@@H]([C@H](O5)CO)O)O)O[C@H]6[C@@H]([C@H]([C@@H]([C@H](O6)CO)O)O)O)(C)C(=O)O[C@H]7[C@@H]([C@H]([C@@H]([C@H](O7)CO)O)O)O

> <PUBCHEM_CACTVS_TPSA>
295

> <PUBCHEM_MONOISOTOPIC_WEIGHT>
804.37796506

> <PUBCHEM_TOTAL_CHARGE>
0

> <PUBCHEM_HEAVY_ATOM_COUNT>
56

> <PUBCHEM_ATOM_DEF_STEREO_COUNT>
21

> <PUBCHEM_ATOM_UDEF_STEREO_COUNT>
0

> <PUBCHEM_BOND_DEF_STEREO_COUNT>
0

> <PUBCHEM_BOND_UDEF_STEREO_COUNT>
0

> <PUBCHEM_ISOTOPIC_ATOM_COUNT>
0

> <PUBCHEM_COMPONENT_COUNT>
1

> <PUBCHEM_CACTVS_TAUTO_COUNT>
1

> <PUBCHEM_COORDINATE_TYPE>
1
5
255

> <PUBCHEM_BONDANNOTATIONS>
24  1  6
39  1  5
48  12  6
50  13  5
51  14  6
52  15  5
55  17  6
19  25  6
42  2  6
20  57  5
21  33  6
22  58  5
29  36  5
43  46  5
49  53  6
40  5  6
47  5  5
54  56  5
41  7  5
44  8  6
45  9  5

$$$$
