442971
  -OEChem-03112308012D

133141  0     1  0  0  0  0  0999 V2000
    9.4651   -3.4895    0.0000 O   0  0  0  0  0  0  0  0  0  0  0  0
    7.7331   -3.4895    0.0000 O   0  0  0  0  0  0  0  0  0  0  0  0
    9.4651   -5.4895    0.0000 O   0  0  0  0  0  0  0  0  0  0  0  0
    7.7331   -6.4895    0.0000 O   0  0  0  0  0  0  0  0  0  0  0  0
    6.0010   -5.4895    0.0000 O   0  0  0  0  0  0  0  0  0  0  0  0
   10.3312   -3.9895    0.0000 O   0  0  0  0  0  0  0  0  0  0  0  0
    6.0010   -2.4895    0.0000 O   0  0  0  0  0  0  0  0  0  0  0  0
    5.1350   -3.9895    0.0000 O   0  0  0  0  0  0  0  0  0  0  0  0
   11.1972   -6.4895    0.0000 O   0  0  0  0  0  0  0  0  0  0  0  0
   12.9292   -5.4895    0.0000 O   0  0  0  0  0  0  0  0  0  0  0  0
    4.2690   -6.4895    0.0000 O   0  0  0  0  0  0  0  0  0  0  0  0
   12.9292   -3.4895    0.0000 O   0  0  0  0  0  0  0  0  0  0  0  0
    2.5369   -5.4895    0.0000 O   0  0  0  0  0  0  0  0  0  0  0  0
    2.5369   -3.4895    0.0000 O   0  0  0  0  0  0  0  0  0  0  0  0
   10.8882    4.7546    0.0000 N   0  0  3  0  0  0  0  0  0  0  0  0
    9.4944    2.7074    0.0000 C   0  0  2  0  0  0  0  0  0  0  0  0
    9.6999    3.6800    0.0000 C   0  0  2  0  0  0  0  0  0  0  0  0
   10.3623    2.2107    0.0000 C   0  0  2  0  0  0  0  0  0  0  0  0
   10.6882    3.7869    0.0000 C   0  0  2  0  0  0  0  0  0  0  0  0
   10.3662    1.2107    0.0000 C   0  0  1  0  0  0  0  0  0  0  0  0
   11.0968    2.8806    0.0000 C   0  0  0  0  0  0  0  0  0  0  0  0
    9.2976    4.5826    0.0000 C   0  0  1  0  0  0  0  0  0  0  0  0
    9.5021    0.7074    0.0000 C   0  0  2  0  0  0  0  0  0  0  0  0
    8.6303    2.2041    0.0000 C   0  0  0  0  0  0  0  0  0  0  0  0
   10.0305    5.2454    0.0000 C   0  0  1  0  0  0  0  0  0  0  0  0
    8.6342    1.2041    0.0000 C   0  0  0  0  0  0  0  0  0  0  0  0
    9.4901   -0.3342    0.0000 C   0  0  2  0  0  0  0  0  0  0  0  0
    8.6264    3.2040    0.0000 C   0  0  0  0  0  0  0  0  0  0  0  0
   11.2781    0.7074    0.0000 C   0  0  0  0  0  0  0  0  0  0  0  0
   10.0107    6.2745    0.0000 C   0  0  0  0  0  0  0  0  0  0  0  0
   11.7856    5.2589    0.0000 C   0  0  0  0  0  0  0  0  0  0  0  0
    8.3192    4.7893    0.0000 C   0  0  0  0  0  0  0  0  0  0  0  0
   10.3901   -0.8584    0.0000 C   0  0  0  0  0  0  0  0  0  0  0  0
   11.7895    6.2882    0.0000 C   0  0  2  0  0  0  0  0  0  0  0  0
    8.5402   -0.8584    0.0000 C   0  0  0  0  0  0  0  0  0  0  0  0
   10.8961    6.7995    0.0000 C   0  0  0  0  0  0  0  0  0  0  0  0
   11.2902   -0.3342    0.0000 C   0  0  0  0  0  0  0  0  0  0  0  0
    8.6260    0.1692    0.0000 C   0  0  0  0  0  0  0  0  0  0  0  0
   10.4027   -1.9434    0.0000 C   0  0  0  0  0  0  0  0  0  0  0  0
    8.5276   -1.9434    0.0000 C   0  0  0  0  0  0  0  0  0  0  0  0
    9.4651   -2.4895    0.0000 C   0  0  2  0  0  0  0  0  0  0  0  0
   12.6555    6.7882    0.0000 C   0  0  0  0  0  0  0  0  0  0  0  0
    8.5991   -3.9895    0.0000 C   0  0  2  0  0  0  0  0  0  0  0  0
    8.5991   -4.9895    0.0000 C   0  0  1  0  0  0  0  0  0  0  0  0
    7.7331   -5.4895    0.0000 C   0  0  2  0  0  0  0  0  0  0  0  0
    6.8671   -3.9895    0.0000 C   0  0  1  0  0  0  0  0  0  0  0  0
    6.8671   -4.9895    0.0000 C   0  0  1  0  0  0  0  0  0  0  0  0
    6.0010   -3.4895    0.0000 C   0  0  0  0  0  0  0  0  0  0  0  0
   10.3312   -4.9895    0.0000 C   0  0  2  0  0  0  0  0  0  0  0  0
   11.1972   -5.4895    0.0000 C   0  0  1  0  0  0  0  0  0  0  0  0
    5.1350   -4.9895    0.0000 C   0  0  2  0  0  0  0  0  0  0  0  0
   12.0632   -4.9895    0.0000 C   0  0  1  0  0  0  0  0  0  0  0  0
   11.1972   -3.4895    0.0000 C   0  0  2  0  0  0  0  0  0  0  0  0
    4.2690   -5.4895    0.0000 C   0  0  1  0  0  0  0  0  0  0  0  0
   12.0632   -3.9895    0.0000 C   0  0  2  0  0  0  0  0  0  0  0  0
    3.4030   -4.9895    0.0000 C   0  0  1  0  0  0  0  0  0  0  0  0
    4.2690   -3.4895    0.0000 C   0  0  2  0  0  0  0  0  0  0  0  0
    3.4030   -3.9895    0.0000 C   0  0  2  0  0  0  0  0  0  0  0  0
   11.1972   -2.4895    0.0000 C   0  0  0  0  0  0  0  0  0  0  0  0
    4.2690   -2.4895    0.0000 C   0  0  0  0  0  0  0  0  0  0  0  0
    8.8546    3.5905    0.0000 H   0  0  0  0  0  0  0  0  0  0  0  0
   11.1406    1.8690    0.0000 H   0  0  0  0  0  0  0  0  0  0  0  0
   11.5330    3.8801    0.0000 H   0  0  0  0  0  0  0  0  0  0  0  0
   11.0974    1.6442    0.0000 H   0  0  0  0  0  0  0  0  0  0  0  0
   11.4642    2.3812    0.0000 H   0  0  0  0  0  0  0  0  0  0  0  0
   11.6321    3.1935    0.0000 H   0  0  0  0  0  0  0  0  0  0  0  0
    9.1361    5.1812    0.0000 H   0  0  0  0  0  0  0  0  0  0  0  0
   10.2366    0.2796    0.0000 H   0  0  0  0  0  0  0  0  0  0  0  0
    8.4160    2.7858    0.0000 H   0  0  0  0  0  0  0  0  0  0  0  0
    8.0201    2.0940    0.0000 H   0  0  0  0  0  0  0  0  0  0  0  0
    9.2504    5.5828    0.0000 H   0  0  0  0  0  0  0  0  0  0  0  0
    8.0232    1.3094    0.0000 H   0  0  0  0  0  0  0  0  0  0  0  0
    8.4244    0.6206    0.0000 H   0  0  0  0  0  0  0  0  0  0  0  0
    8.9344    3.7422    0.0000 H   0  0  0  0  0  0  0  0  0  0  0  0
    8.0883    3.5120    0.0000 H   0  0  0  0  0  0  0  0  0  0  0  0
    8.3185    2.6659    0.0000 H   0  0  0  0  0  0  0  0  0  0  0  0
   11.8902    0.6084    0.0000 H   0  0  0  0  0  0  0  0  0  0  0  0
   11.4804    1.2935    0.0000 H   0  0  0  0  0  0  0  0  0  0  0  0
    9.7904    6.8541    0.0000 H   0  0  0  0  0  0  0  0  0  0  0  0
    9.4020    6.1567    0.0000 H   0  0  0  0  0  0  0  0  0  0  0  0
   11.9924    4.6744    0.0000 H   0  0  0  0  0  0  0  0  0  0  0  0
   12.3968    5.3627    0.0000 H   0  0  0  0  0  0  0  0  0  0  0  0
    8.4473    5.3959    0.0000 H   0  0  0  0  0  0  0  0  0  0  0  0
    7.7125    4.9174    0.0000 H   0  0  0  0  0  0  0  0  0  0  0  0
    8.1910    4.1827    0.0000 H   0  0  0  0  0  0  0  0  0  0  0  0
   12.3259    5.9772    0.0000 H   0  0  0  0  0  0  0  0  0  0  0  0
    8.3379   -0.2724    0.0000 H   0  0  0  0  0  0  0  0  0  0  0  0
    7.9281   -0.9575    0.0000 H   0  0  0  0  0  0  0  0  0  0  0  0
   11.2916    7.2770    0.0000 H   0  0  0  0  0  0  0  0  0  0  0  0
   10.4933    7.2708    0.0000 H   0  0  0  0  0  0  0  0  0  0  0  0
   11.8295   -0.6400    0.0000 H   0  0  0  0  0  0  0  0  0  0  0  0
    8.9380    0.7049    0.0000 H   0  0  0  0  0  0  0  0  0  0  0  0
    8.0902    0.4812    0.0000 H   0  0  0  0  0  0  0  0  0  0  0  0
    8.3139   -0.3666    0.0000 H   0  0  0  0  0  0  0  0  0  0  0  0
   10.6185   -2.5246    0.0000 H   0  0  0  0  0  0  0  0  0  0  0  0
   11.0123   -1.8302    0.0000 H   0  0  0  0  0  0  0  0  0  0  0  0
    7.9180   -1.8302    0.0000 H   0  0  0  0  0  0  0  0  0  0  0  0
    8.3118   -2.5246    0.0000 H   0  0  0  0  0  0  0  0  0  0  0  0
   10.0027   -2.7984    0.0000 H   0  0  0  0  0  0  0  0  0  0  0  0
   12.9655    6.2513    0.0000 H   0  0  0  0  0  0  0  0  0  0  0  0
   13.1925    7.0982    0.0000 H   0  0  0  0  0  0  0  0  0  0  0  0
   12.3455    7.3252    0.0000 H   0  0  0  0  0  0  0  0  0  0  0  0
    8.5991   -3.3695    0.0000 H   0  0  0  0  0  0  0  0  0  0  0  0
    8.5991   -5.6095    0.0000 H   0  0  0  0  0  0  0  0  0  0  0  0
    7.1962   -5.7995    0.0000 H   0  0  0  0  0  0  0  0  0  0  0  0
    6.8671   -3.3695    0.0000 H   0  0  0  0  0  0  0  0  0  0  0  0
    6.3301   -4.6795    0.0000 H   0  0  0  0  0  0  0  0  0  0  0  0
    5.3905   -3.3818    0.0000 H   0  0  0  0  0  0  0  0  0  0  0  0
    5.7890   -4.0721    0.0000 H   0  0  0  0  0  0  0  0  0  0  0  0
    9.7942   -4.6795    0.0000 H   0  0  0  0  0  0  0  0  0  0  0  0
    7.1962   -6.7995    0.0000 H   0  0  0  0  0  0  0  0  0  0  0  0
   11.7341   -5.7995    0.0000 H   0  0  0  0  0  0  0  0  0  0  0  0
    5.1350   -5.6095    0.0000 H   0  0  0  0  0  0  0  0  0  0  0  0
    5.4641   -2.1795    0.0000 H   0  0  0  0  0  0  0  0  0  0  0  0
   12.6002   -4.6795    0.0000 H   0  0  0  0  0  0  0  0  0  0  0  0
   10.6603   -3.1795    0.0000 H   0  0  0  0  0  0  0  0  0  0  0  0
    3.7320   -5.7995    0.0000 H   0  0  0  0  0  0  0  0  0  0  0  0
   12.0632   -3.3695    0.0000 H   0  0  0  0  0  0  0  0  0  0  0  0
    2.8660   -4.6795    0.0000 H   0  0  0  0  0  0  0  0  0  0  0  0
   11.7341   -6.7995    0.0000 H   0  0  0  0  0  0  0  0  0  0  0  0
    4.8059   -3.1795    0.0000 H   0  0  0  0  0  0  0  0  0  0  0  0
    3.4030   -3.3695    0.0000 H   0  0  0  0  0  0  0  0  0  0  0  0
   11.8172   -2.4895    0.0000 H   0  0  0  0  0  0  0  0  0  0  0  0
   11.1972   -1.8695    0.0000 H   0  0  0  0  0  0  0  0  0  0  0  0
   10.5772   -2.4895    0.0000 H   0  0  0  0  0  0  0  0  0  0  0  0
   13.4662   -5.1795    0.0000 H   0  0  0  0  0  0  0  0  0  0  0  0
    3.7320   -6.7995    0.0000 H   0  0  0  0  0  0  0  0  0  0  0  0
   13.4662   -3.7995    0.0000 H   0  0  0  0  0  0  0  0  0  0  0  0
    4.8890   -2.4895    0.0000 H   0  0  0  0  0  0  0  0  0  0  0  0
    4.2690   -1.8695    0.0000 H   0  0  0  0  0  0  0  0  0  0  0  0
    3.6490   -2.4895    0.0000 H   0  0  0  0  0  0  0  0  0  0  0  0
    2.0000   -5.1795    0.0000 H   0  0  0  0  0  0  0  0  0  0  0  0
    2.5369   -2.8695    0.0000 H   0  0  0  0  0  0  0  0  0  0  0  0
 41  1  1  1  0  0  0
 43  1  1  1  0  0  0
  2 43  1  0  0  0  0
  2 46  1  0  0  0  0
 44  3  1  6  0  0  0
 49  3  1  6  0  0  0
 45  4  1  1  0  0  0
  4111  1  0  0  0  0
 47  5  1  6  0  0  0
 51  5  1  1  0  0  0
  6 49  1  0  0  0  0
  6 53  1  0  0  0  0
  7 48  1  0  0  0  0
  7114  1  0  0  0  0
  8 51  1  0  0  0  0
  8 57  1  0  0  0  0
 50  9  1  1  0  0  0
  9120  1  0  0  0  0
 52 10  1  1  0  0  0
 10126  1  0  0  0  0
 54 11  1  6  0  0  0
 11127  1  0  0  0  0
 55 12  1  6  0  0  0
 12128  1  0  0  0  0
 56 13  1  6  0  0  0
 13132  1  0  0  0  0
 58 14  1  1  0  0  0
 14133  1  0  0  0  0
 15 19  1  0  0  0  0
 15 25  1  0  0  0  0
 15 31  1  0  0  0  0
 16 17  1  0  0  0  0
 16 18  1  0  0  0  0
 16 24  1  0  0  0  0
 16 28  1  1  0  0  0
 17 19  1  0  0  0  0
 17 22  1  0  0  0  0
 17 61  1  6  0  0  0
 18 20  1  0  0  0  0
 18 21  1  0  0  0  0
 18 62  1  6  0  0  0
 19 21  1  0  0  0  0
 19 63  1  6  0  0  0
 20 23  1  0  0  0  0
 20 29  1  0  0  0  0
 20 64  1  1  0  0  0
 21 65  1  0  0  0  0
 21 66  1  0  0  0  0
 22 25  1  0  0  0  0
 22 32  1  6  0  0  0
 22 67  1  0  0  0  0
 23 26  1  0  0  0  0
 23 27  1  0  0  0  0
 23 68  1  6  0  0  0
 24 26  1  0  0  0  0
 24 69  1  0  0  0  0
 24 70  1  0  0  0  0
 25 30  1  0  0  0  0
 25 71  1  6  0  0  0
 26 72  1  0  0  0  0
 26 73  1  0  0  0  0
 27 33  1  0  0  0  0
 27 35  1  0  0  0  0
 27 38  1  1  0  0  0
 28 74  1  0  0  0  0
 28 75  1  0  0  0  0
 28 76  1  0  0  0  0
 29 37  1  0  0  0  0
 29 77  1  0  0  0  0
 29 78  1  0  0  0  0
 30 36  1  0  0  0  0
 30 79  1  0  0  0  0
 30 80  1  0  0  0  0
 31 34  1  0  0  0  0
 31 81  1  0  0  0  0
 31 82  1  0  0  0  0
 32 83  1  0  0  0  0
 32 84  1  0  0  0  0
 32 85  1  0  0  0  0
 33 37  2  0  0  0  0
 33 39  1  0  0  0  0
 34 36  1  0  0  0  0
 34 42  1  6  0  0  0
 34 86  1  0  0  0  0
 35 40  1  0  0  0  0
 35 87  1  0  0  0  0
 35 88  1  0  0  0  0
 36 89  1  0  0  0  0
 36 90  1  0  0  0  0
 37 91  1  0  0  0  0
 38 92  1  0  0  0  0
 38 93  1  0  0  0  0
 38 94  1  0  0  0  0
 39 41  1  0  0  0  0
 39 95  1  0  0  0  0
 39 96  1  0  0  0  0
 40 41  1  0  0  0  0
 40 97  1  0  0  0  0
 40 98  1  0  0  0  0
 41 99  1  0  0  0  0
 42100  1  0  0  0  0
 42101  1  0  0  0  0
 42102  1  0  0  0  0
 43 44  1  0  0  0  0
 43103  1  0  0  0  0
 44 45  1  0  0  0  0
 44104  1  0  0  0  0
 45 47  1  0  0  0  0
 45105  1  0  0  0  0
 46 47  1  0  0  0  0
 46 48  1  1  0  0  0
 46106  1  0  0  0  0
 47107  1  0  0  0  0
 48108  1  0  0  0  0
 48109  1  0  0  0  0
 49 50  1  0  0  0  0
 49110  1  0  0  0  0
 50 52  1  0  0  0  0
 50112  1  0  0  0  0
 51 54  1  0  0  0  0
 51113  1  0  0  0  0
 52 55  1  0  0  0  0
 52115  1  0  0  0  0
 53 55  1  0  0  0  0
 53 59  1  1  0  0  0
 53116  1  0  0  0  0
 54 56  1  0  0  0  0
 54117  1  0  0  0  0
 55118  1  0  0  0  0
 56 58  1  0  0  0  0
 56119  1  0  0  0  0
 57 58  1  0  0  0  0
 57 60  1  6  0  0  0
 57121  1  0  0  0  0
 58122  1  0  0  0  0
 59123  1  0  0  0  0
 59124  1  0  0  0  0
 59125  1  0  0  0  0
 60129  1  0  0  0  0
 60130  1  0  0  0  0
 60131  1  0  0  0  0
M  END
> <PUBCHEM_COMPOUND_CID>
442971

> <PUBCHEM_COMPOUND_CANONICALIZED>
1

> <PUBCHEM_CACTVS_COMPLEXITY>
1570

> <PUBCHEM_CACTVS_HBOND_ACCEPTOR>
15

> <PUBCHEM_CACTVS_HBOND_DONOR>
8

> <PUBCHEM_CACTVS_ROTATABLE_BOND>
7

> <PUBCHEM_CACTVS_SUBSKEYS>
AAADcfB+PAAAAAAAAAAAAAAAAAAAAeIAAAA8aJEiAAAWAHiAAAAAHgAACAAADzzxgAcCCAMABgCAAiBCAAAAAAAgAAAACAAIAAgREAIAgQAmQAAFwACPAAPQ4PwPgAAAAAAAAADAAAQAACAAASAACQAAAA==

> <PUBCHEM_IUPAC_OPENEYE_NAME>
(2S,3R,4R,5R,6S)-2-[(2R,3S,4S,5R,6R)-4-hydroxy-2-(hydroxymethyl)-6-[[(1S,2S,7S,10R,11S,14S,15R,16S,17R,20S,23S)-10,14,16,20-tetramethyl-22-azahexacyclo[12.10.0.02,11.05,10.015,23.017,22]tetracos-4-en-7-yl]oxy]-5-[(2S,3R,4R,5R,6S)-3,4,5-trihydroxy-6-methyl-tetrahydropyran-2-yl]oxy-tetrahydropyran-3-yl]oxy-6-methyl-tetrahydropyran-3,4,5-triol

> <PUBCHEM_IUPAC_CAS_NAME>
(2S,3R,4R,5R,6S)-2-[[(2R,3S,4S,5R,6R)-4-hydroxy-2-(hydroxymethyl)-6-[[(1S,2S,7S,10R,11S,14S,15R,16S,17R,20S,23S)-10,14,16,20-tetramethyl-22-azahexacyclo[12.10.0.02,11.05,10.015,23.017,22]tetracos-4-en-7-yl]oxy]-5-[[(2S,3R,4R,5R,6S)-3,4,5-trihydroxy-6-methyl-2-oxanyl]oxy]-3-oxanyl]oxy]-6-methyloxane-3,4,5-triol

> <PUBCHEM_IUPAC_NAME_MARKUP>
(2<I>S</I>,3<I>R</I>,4<I>R</I>,5<I>R</I>,6<I>S</I>)-2-[(2<I>R</I>,3<I>S</I>,4<I>S</I>,5<I>R</I>,6<I>R</I>)-4-hydroxy-2-(hydroxymethyl)-6-[[(1<I>S</I>,2<I>S</I>,7<I>S</I>,10<I>R</I>,11<I>S</I>,14<I>S</I>,15<I>R</I>,16<I>S</I>,17<I>R</I>,20<I>S</I>,23<I>S</I>)-10,14,16,20-tetramethyl-22-azahexacyclo[12.10.0.0<SUP>2,11</SUP>.0<SUP>5,10</SUP>.0<SUP>15,23</SUP>.0<SUP>17,22</SUP>]tetracos-4-en-7-yl]oxy]-5-[(2<I>S</I>,3<I>R</I>,4<I>R</I>,5<I>R</I>,6<I>S</I>)-3,4,5-trihydroxy-6-methyloxan-2-yl]oxyoxan-3-yl]oxy-6-methyloxane-3,4,5-triol

> <PUBCHEM_IUPAC_NAME>
(2S,3R,4R,5R,6S)-2-[(2R,3S,4S,5R,6R)-4-hydroxy-2-(hydroxymethyl)-6-[[(1S,2S,7S,10R,11S,14S,15R,16S,17R,20S,23S)-10,14,16,20-tetramethyl-22-azahexacyclo[12.10.0.02,11.05,10.015,23.017,22]tetracos-4-en-7-yl]oxy]-5-[(2S,3R,4R,5R,6S)-3,4,5-trihydroxy-6-methyloxan-2-yl]oxyoxan-3-yl]oxy-6-methyloxane-3,4,5-triol

> <PUBCHEM_IUPAC_SYSTEMATIC_NAME>
(2S,3R,4R,5R,6S)-2-[(2R,3S,4S,5R,6R)-2-(hydroxymethyl)-5-[(2S,3R,4R,5R,6S)-6-methyl-3,4,5-tris(oxidanyl)oxan-2-yl]oxy-4-oxidanyl-6-[[(1S,2S,7S,10R,11S,14S,15R,16S,17R,20S,23S)-10,14,16,20-tetramethyl-22-azahexacyclo[12.10.0.02,11.05,10.015,23.017,22]tetracos-4-en-7-yl]oxy]oxan-3-yl]oxy-6-methyl-oxane-3,4,5-triol

> <PUBCHEM_IUPAC_TRADITIONAL_NAME>
(2S,3R,4R,5R,6S)-2-[(2R,3S,4S,5R,6R)-4-hydroxy-2-methylol-6-[[(1S,2S,7S,10R,11S,14S,15R,16S,17R,20S,23S)-10,14,16,20-tetramethyl-22-azahexacyclo[12.10.0.02,11.05,10.015,23.017,22]tetracos-4-en-7-yl]oxy]-5-[(2S,3R,4R,5R,6S)-3,4,5-trihydroxy-6-methyl-tetrahydropyran-2-yl]oxy-tetrahydropyran-3-yl]oxy-6-methyl-tetrahydropyran-3,4,5-triol

> <PUBCHEM_IUPAC_INCHI>
InChI=1S/C45H73NO14/c1-19-7-10-28-20(2)31-29(46(28)17-19)16-27-25-9-8-23-15-24(11-13-44(23,5)26(25)12-14-45(27,31)6)57-43-40(60-42-37(53)35(51)33(49)22(4)56-42)38(54)39(30(18-47)58-43)59-41-36(52)34(50)32(48)21(3)55-41/h8,19-22,24-43,47-54H,7,9-18H2,1-6H3/t19-,20+,21-,22-,24-,25+,26-,27-,28+,29-,30+,31-,32-,33-,34+,35+,36+,37+,38-,39+,40+,41-,42-,43+,44-,45-/m0/s1

> <PUBCHEM_IUPAC_INCHIKEY>
TYNQWWGVEGFKRU-AJDPQWBVSA-N

> <PUBCHEM_XLOGP3_AA>
1.8

> <PUBCHEM_EXACT_MASS>
851.50310600

> <PUBCHEM_MOLECULAR_FORMULA>
C45H73NO14

> <PUBCHEM_MOLECULAR_WEIGHT>
852.1

> <PUBCHEM_OPENEYE_CAN_SMILES>
CC1CCC2C(C3C(N2C1)CC4C3(CCC5C4CC=C6C5(CCC(C6)OC7C(C(C(C(O7)CO)OC8C(C(C(C(O8)C)O)O)O)O)OC9C(C(C(C(O9)C)O)O)O)C)C)C

> <PUBCHEM_OPENEYE_ISO_SMILES>
C[C@H]1CC[C@@H]2[C@H]([C@H]3[C@@H](N2C1)C[C@@H]4[C@@]3(CC[C@H]5[C@H]4CC=C6[C@@]5(CC[C@@H](C6)O[C@H]7[C@@H]([C@H]([C@@H]([C@H](O7)CO)O[C@H]8[C@@H]([C@@H]([C@H]([C@@H](O8)C)O)O)O)O)O[C@H]9[C@@H]([C@@H]([C@H]([C@@H](O9)C)O)O)O)C)C)C

> <PUBCHEM_CACTVS_TPSA>
221

> <PUBCHEM_MONOISOTOPIC_WEIGHT>
851.50310600

> <PUBCHEM_TOTAL_CHARGE>
0

> <PUBCHEM_HEAVY_ATOM_COUNT>
60

> <PUBCHEM_ATOM_DEF_STEREO_COUNT>
26

> <PUBCHEM_ATOM_UDEF_STEREO_COUNT>
0

> <PUBCHEM_BOND_DEF_STEREO_COUNT>
0

> <PUBCHEM_BOND_UDEF_STEREO_COUNT>
0

> <PUBCHEM_ISOTOPIC_ATOM_COUNT>
0

> <PUBCHEM_COMPONENT_COUNT>
1

> <PUBCHEM_CACTVS_TAUTO_COUNT>
1

> <PUBCHEM_COORDINATE_TYPE>
1
5
255

> <PUBCHEM_BONDANNOTATIONS>
41  1  5
43  1  5
52  10  5
54  11  6
55  12  6
56  13  6
58  14  5
16  28  5
17  61  6
18  62  6
19  63  6
20  64  5
22  32  6
23  68  6
25  71  6
27  38  5
44  3  6
49  3  6
34  42  6
45  4  5
46  48  5
47  5  6
51  5  5
53  59  5
57  60  6
50  9  5

$$$$
