4680
  -OEChem-03092320403D

 46 48  0     0  0  0  0  0  0999 V2000
   -4.5276    2.0829   -0.2217 O   0  0  0  0  0  0  0  0  0  0  0  0
   -5.8545   -0.3546   -0.1167 O   0  0  0  0  0  0  0  0  0  0  0  0
    4.8417    0.2406   -1.8690 O   0  0  0  0  0  0  0  0  0  0  0  0
    6.0567    0.2340    0.6304 O   0  0  0  0  0  0  0  0  0  0  0  0
    0.4372   -1.3593    0.3747 N   0  0  0  0  0  0  0  0  0  0  0  0
   -1.7011   -0.2237    0.1452 C   0  0  0  0  0  0  0  0  0  0  0  0
    0.4870    1.0271    0.1903 C   0  0  0  0  0  0  0  0  0  0  0  0
   -0.3079   -0.2394    0.2378 C   0  0  0  0  0  0  0  0  0  0  0  0
   -2.3709   -1.4636    0.1989 C   0  0  0  0  0  0  0  0  0  0  0  0
    1.9812    0.8142    0.3051 C   0  0  0  0  0  0  0  0  0  0  0  0
   -2.4389    0.9631    0.0033 C   0  0  0  0  0  0  0  0  0  0  0  0
   -3.7722   -1.4878    0.1088 C   0  0  0  0  0  0  0  0  0  0  0  0
   -3.8302    0.9206   -0.0845 C   0  0  0  0  0  0  0  0  0  0  0  0
   -1.6175   -2.6348    0.3404 C   0  0  0  0  0  0  0  0  0  0  0  0
   -4.4953   -0.3021   -0.0320 C   0  0  0  0  0  0  0  0  0  0  0  0
    2.7261    0.6242   -0.8456 C   0  0  0  0  0  0  0  0  0  0  0  0
    2.5689    0.8137    1.5579 C   0  0  0  0  0  0  0  0  0  0  0  0
   -0.2377   -2.5276    0.4224 C   0  0  0  0  0  0  0  0  0  0  0  0
    4.1030    0.4274   -0.7399 C   0  0  0  0  0  0  0  0  0  0  0  0
    4.7127    0.4239    0.5148 C   0  0  0  0  0  0  0  0  0  0  0  0
    3.9456    0.6170    1.6636 C   0  0  0  0  0  0  0  0  0  0  0  0
   -4.9423    2.7351    0.9769 C   0  0  0  0  0  0  0  0  0  0  0  0
   -6.4178   -0.4787   -1.4208 C   0  0  0  0  0  0  0  0  0  0  0  0
    4.1420    0.2582   -3.1118 C   0  0  0  0  0  0  0  0  0  0  0  0
    6.5117   -1.1104    0.7717 C   0  0  0  0  0  0  0  0  0  0  0  0
    0.1690    1.6929    1.0036 H   0  0  0  0  0  0  0  0  0  0  0  0
    0.2816    1.5589   -0.7482 H   0  0  0  0  0  0  0  0  0  0  0  0
   -1.9525    1.9342   -0.0424 H   0  0  0  0  0  0  0  0  0  0  0  0
   -4.3061   -2.4356    0.1492 H   0  0  0  0  0  0  0  0  0  0  0  0
   -2.0894   -3.6115    0.3862 H   0  0  0  0  0  0  0  0  0  0  0  0
    2.1948    0.6349   -1.7908 H   0  0  0  0  0  0  0  0  0  0  0  0
    1.9795    0.9614    2.4581 H   0  0  0  0  0  0  0  0  0  0  0  0
    0.3807   -3.4124    0.5325 H   0  0  0  0  0  0  0  0  0  0  0  0
    4.4139    0.6158    2.6442 H   0  0  0  0  0  0  0  0  0  0  0  0
   -5.6058    2.0874    1.5586 H   0  0  0  0  0  0  0  0  0  0  0  0
   -5.4902    3.6405    0.7022 H   0  0  0  0  0  0  0  0  0  0  0  0
   -4.0734    3.0206    1.5783 H   0  0  0  0  0  0  0  0  0  0  0  0
   -7.5066   -0.5005   -1.3230 H   0  0  0  0  0  0  0  0  0  0  0  0
   -6.0900   -1.4101   -1.8931 H   0  0  0  0  0  0  0  0  0  0  0  0
   -6.1397    0.3771   -2.0440 H   0  0  0  0  0  0  0  0  0  0  0  0
    3.6845    1.2347   -3.3040 H   0  0  0  0  0  0  0  0  0  0  0  0
    3.4196   -0.5623   -3.1800 H   0  0  0  0  0  0  0  0  0  0  0  0
    4.8834    0.0944   -3.9009 H   0  0  0  0  0  0  0  0  0  0  0  0
    6.2256   -1.7078   -0.0997 H   0  0  0  0  0  0  0  0  0  0  0  0
    6.1058   -1.5583    1.6842 H   0  0  0  0  0  0  0  0  0  0  0  0
    7.6026   -1.0972    0.8438 H   0  0  0  0  0  0  0  0  0  0  0  0
  1 13  1  0  0  0  0
  1 22  1  0  0  0  0
  2 15  1  0  0  0  0
  2 23  1  0  0  0  0
  3 19  1  0  0  0  0
  3 24  1  0  0  0  0
  4 20  1  0  0  0  0
  4 25  1  0  0  0  0
  5  8  2  0  0  0  0
  5 18  1  0  0  0  0
  6  8  1  0  0  0  0
  6  9  1  0  0  0  0
  6 11  2  0  0  0  0
  7  8  1  0  0  0  0
  7 10  1  0  0  0  0
  7 26  1  0  0  0  0
  7 27  1  0  0  0  0
  9 12  2  0  0  0  0
  9 14  1  0  0  0  0
 10 16  2  0  0  0  0
 10 17  1  0  0  0  0
 11 13  1  0  0  0  0
 11 28  1  0  0  0  0
 12 15  1  0  0  0  0
 12 29  1  0  0  0  0
 13 15  2  0  0  0  0
 14 18  2  0  0  0  0
 14 30  1  0  0  0  0
 16 19  1  0  0  0  0
 16 31  1  0  0  0  0
 17 21  2  0  0  0  0
 17 32  1  0  0  0  0
 18 33  1  0  0  0  0
 19 20  2  0  0  0  0
 20 21  1  0  0  0  0
 21 34  1  0  0  0  0
 22 35  1  0  0  0  0
 22 36  1  0  0  0  0
 22 37  1  0  0  0  0
 23 38  1  0  0  0  0
 23 39  1  0  0  0  0
 23 40  1  0  0  0  0
 24 41  1  0  0  0  0
 24 42  1  0  0  0  0
 24 43  1  0  0  0  0
 25 44  1  0  0  0  0
 25 45  1  0  0  0  0
 25 46  1  0  0  0  0
M  END
> <PUBCHEM_COMPOUND_CID>
4680

> <PUBCHEM_CONFORMER_RMSD>
0.8

> <PUBCHEM_CONFORMER_DIVERSEORDER>
23
27
36
51
33
50
20
32
34
6
40
37
10
52
42
45
22
54
30
44
14
11
39
35
9
16
41
38
53
21
4
18
3
19
26
2
17
12
13
24
7
1
43
49
5
48
31
28
15
8
25
47
46
29

> <PUBCHEM_MMFF94_PARTIAL_CHARGES>
30
1 -0.36
10 -0.14
11 -0.15
12 -0.15
13 0.08
14 -0.15
15 0.08
16 -0.15
17 -0.15
18 0.16
19 0.08
2 -0.36
20 0.08
21 -0.15
22 0.28
23 0.28
24 0.28
25 0.28
28 0.15
29 0.15
3 -0.36
30 0.15
31 0.15
32 0.15
33 0.15
34 0.15
4 -0.36
5 -0.62
7 0.29
8 0.17

> <PUBCHEM_EFFECTIVE_ROTOR_COUNT>
6

> <PUBCHEM_PHARMACOPHORE_FEATURES>
8
1 1 acceptor
1 2 acceptor
1 3 acceptor
1 4 acceptor
1 5 acceptor
6 10 16 17 19 20 21 rings
6 5 6 8 9 14 18 rings
6 6 9 11 12 13 15 rings

> <PUBCHEM_HEAVY_ATOM_COUNT>
25

> <PUBCHEM_ATOM_DEF_STEREO_COUNT>
0

> <PUBCHEM_ATOM_UDEF_STEREO_COUNT>
0

> <PUBCHEM_BOND_DEF_STEREO_COUNT>
0

> <PUBCHEM_BOND_UDEF_STEREO_COUNT>
0

> <PUBCHEM_ISOTOPIC_ATOM_COUNT>
0

> <PUBCHEM_COMPONENT_COUNT>
1

> <PUBCHEM_CACTVS_TAUTO_COUNT>
1

> <PUBCHEM_CONFORMER_ID>
0000124800000017

> <PUBCHEM_MMFF94_ENERGY>
116.2191

> <PUBCHEM_FEATURE_SELFOVERLAP>
40.635

> <PUBCHEM_SHAPE_FINGERPRINT>
10670039 82 18334582312866592725
11315181 36 18259984906987144385
11796584 16 18412548704821904370
11991303 11 17531242920236309379
12236239 1 17386004013462993758
12390115 104 18271817766159639561
12596602 18 16443071642128742185
12616971 3 17240488004935142204
15021287 119 16950279594696392132
15042514 8 18192429904109053243
15131766 46 16010733855986968894
15183329 4 18186525393217279294
16752209 62 18336546126453921122
17844677 252 18342460373724922696
19489759 90 18343861126259002481
200 152 14908187447047461707
20645477 70 16702030772671091348
21033648 29 17561070419438014712
21267235 1 18335420197072852315
21279426 13 18200315390389882982
21285901 2 17703519822213743036
21315759 40 18040430001579078323
21781051 124 18115602568262920699
22122407 14 16153429433123666285
23366157 5 17824540769075291995
23402539 116 18343294873053912645
23559900 14 18199475531326854980
23569917 315 18260548922489049323
25147074 1 18265319639348872555
29717793 49 17749105595780927414
3004659 81 18187646891247009762
3298306 158 18201727236435339734
4098825 35 16128384736170687689
5104073 3 18264492793746108043
5265222 85 18268718389046801446
5385378 56 18267309738067507131
559249 180 18335133172872074058
59755656 215 18411413999250890703
7226269 152 18130786737557727944

> <PUBCHEM_SHAPE_MULTIPOLES>
486.03
15.27
2.16
1.59
1.95
0.41
1.28
-2.29
2.13
-2.93
-0.65
2.69
-0.27
-0.56

> <PUBCHEM_SHAPE_SELFOVERLAP>
1054.361

> <PUBCHEM_SHAPE_VOLUME>
267.7

> <PUBCHEM_COORDINATE_TYPE>
2
5
10

$$$$
