46849638
  -OEChem-03112307433D

 33 35  0     1  0  0  0  0  0999 V2000
    1.0650    0.3355    1.0917 O   0  0  0  0  0  0  0  0  0  0  0  0
    0.7376   -1.0802   -0.8360 O   0  0  0  0  0  0  0  0  0  0  0  0
    3.5050   -0.6261   -1.2677 O   0  0  0  0  0  0  0  0  0  0  0  0
    4.7355    0.2600    1.0581 O   0  0  0  0  0  0  0  0  0  0  0  0
   -4.7608    1.8690    0.1454 O   0  0  0  0  0  0  0  0  0  0  0  0
   -1.6885   -0.0276   -0.1486 N   0  0  0  0  0  0  0  0  0  0  0  0
    0.7613    0.2612   -0.3115 C   0  0  2  0  0  0  0  0  0  0  0  0
    1.7955    1.0824   -1.1166 C   0  0  0  0  0  0  0  0  0  0  0  0
   -0.6289    0.8874   -0.5328 C   0  0  0  0  0  0  0  0  0  0  0  0
    3.2363    0.6885   -0.7830 C   0  0  1  0  0  0  0  0  0  0  0  0
    3.4345    0.7263    0.7299 C   0  0  1  0  0  0  0  0  0  0  0  0
    2.3754   -0.1131    1.4305 C   0  0  0  0  0  0  0  0  0  0  0  0
   -1.4909   -1.3744    0.0012 C   0  0  0  0  0  0  0  0  0  0  0  0
   -0.1408   -1.9739   -0.1381 C   0  0  0  0  0  0  0  0  0  0  0  0
   -3.0004    0.2908    0.0544 C   0  0  0  0  0  0  0  0  0  0  0  0
   -2.7144   -1.9321    0.3129 C   0  0  0  0  0  0  0  0  0  0  0  0
   -3.6662   -0.8806    0.3462 C   0  0  0  0  0  0  0  0  0  0  0  0
   -3.5551    1.6067   -0.0359 C   0  0  0  0  0  0  0  0  0  0  0  0
    1.6747    2.1480   -0.8826 H   0  0  0  0  0  0  0  0  0  0  0  0
    1.6205    0.9427   -2.1904 H   0  0  0  0  0  0  0  0  0  0  0  0
   -0.7357    1.8022    0.0594 H   0  0  0  0  0  0  0  0  0  0  0  0
   -0.8032    1.1030   -1.5938 H   0  0  0  0  0  0  0  0  0  0  0  0
    3.9486    1.3607   -1.2739 H   0  0  0  0  0  0  0  0  0  0  0  0
    3.3512    1.7676    1.0652 H   0  0  0  0  0  0  0  0  0  0  0  0
    2.4856   -1.1798    1.2025 H   0  0  0  0  0  0  0  0  0  0  0  0
    2.4892   -0.0245    2.5166 H   0  0  0  0  0  0  0  0  0  0  0  0
    0.2826   -2.2116    0.8431 H   0  0  0  0  0  0  0  0  0  0  0  0
   -0.1909   -2.9018   -0.7163 H   0  0  0  0  0  0  0  0  0  0  0  0
   -2.9004   -2.9803    0.5016 H   0  0  0  0  0  0  0  0  0  0  0  0
   -4.7221   -0.9762    0.5600 H   0  0  0  0  0  0  0  0  0  0  0  0
    3.3597   -0.6188   -2.2291 H   0  0  0  0  0  0  0  0  0  0  0  0
    4.8258    0.2991    2.0255 H   0  0  0  0  0  0  0  0  0  0  0  0
   -2.8714    2.4328   -0.2899 H   0  0  0  0  0  0  0  0  0  0  0  0
  1  7  1  0  0  0  0
  1 12  1  0  0  0  0
  2  7  1  0  0  0  0
  2 14  1  0  0  0  0
  3 10  1  0  0  0  0
  3 31  1  0  0  0  0
  4 11  1  0  0  0  0
  4 32  1  0  0  0  0
  5 18  2  0  0  0  0
  6  9  1  0  0  0  0
  6 13  1  0  0  0  0
  6 15  1  0  0  0  0
  7  8  1  0  0  0  0
  7  9  1  0  0  0  0
  8 10  1  0  0  0  0
  8 19  1  0  0  0  0
  8 20  1  0  0  0  0
  9 21  1  0  0  0  0
  9 22  1  0  0  0  0
 10 11  1  0  0  0  0
 10 23  1  0  0  0  0
 11 12  1  0  0  0  0
 11 24  1  0  0  0  0
 12 25  1  0  0  0  0
 12 26  1  0  0  0  0
 13 14  1  0  0  0  0
 13 16  2  0  0  0  0
 14 27  1  0  0  0  0
 14 28  1  0  0  0  0
 15 17  2  0  0  0  0
 15 18  1  0  0  0  0
 16 17  1  0  0  0  0
 16 29  1  0  0  0  0
 17 30  1  0  0  0  0
 18 33  1  0  0  0  0
M  END
> <PUBCHEM_COMPOUND_CID>
46849638

> <PUBCHEM_CONFORMER_RMSD>
0.6

> <PUBCHEM_CONFORMER_DIVERSEORDER>
1
2

> <PUBCHEM_MMFF94_PARTIAL_CHARGES>
22
1 -0.56
10 0.28
11 0.28
12 0.28
13 -0.33
14 0.46
15 -0.24
16 -0.15
17 -0.15
18 0.59
2 -0.56
29 0.15
3 -0.68
30 0.15
31 0.4
32 0.4
33 0.06
4 -0.68
5 -0.57
6 0.05
7 0.56
9 0.26

> <PUBCHEM_EFFECTIVE_ROTOR_COUNT>
2.6

> <PUBCHEM_PHARMACOPHORE_FEATURES>
11
1 1 acceptor
1 2 acceptor
1 3 acceptor
1 3 donor
1 4 acceptor
1 4 donor
1 5 acceptor
1 6 cation
5 6 13 15 16 17 rings
6 1 7 8 10 11 12 rings
6 2 6 7 9 13 14 rings

> <PUBCHEM_HEAVY_ATOM_COUNT>
18

> <PUBCHEM_ATOM_DEF_STEREO_COUNT>
3

> <PUBCHEM_ATOM_UDEF_STEREO_COUNT>
0

> <PUBCHEM_BOND_DEF_STEREO_COUNT>
0

> <PUBCHEM_BOND_UDEF_STEREO_COUNT>
0

> <PUBCHEM_ISOTOPIC_ATOM_COUNT>
0

> <PUBCHEM_COMPONENT_COUNT>
1

> <PUBCHEM_CACTVS_TAUTO_COUNT>
1

> <PUBCHEM_CONFORMER_ID>
02CADE6600000001

> <PUBCHEM_MMFF94_ENERGY>
38.1204

> <PUBCHEM_FEATURE_SELFOVERLAP>
55.962

> <PUBCHEM_SHAPE_FINGERPRINT>
10608611 8 18271527584471725709
10646746 165 18342737429222106720
11132069 177 18409731755155576213
12119455 92 16988839484398413444
12236239 1 17676483977462191560
12251169 10 18113051632265660137
12403259 415 18060147560531739661
124424 183 17489872622234123416
12500047 106 18272365390741171031
12670546 56 17968368039316719684
13134695 92 16128661842727893168
13140716 1 18334576892865959849
13221675 6 17749385992251348210
13544592 145 18272098141155107046
13581323 91 18339360889111041646
13583140 156 17060328673542307334
13675066 3 18272936046119083542
13760787 5 16370725945932073644
14144814 61 18040995176124910399
15219456 202 18131355206438356118
15375358 24 17846493751278603048
15375462 189 17168137931908414176
16752209 62 18337666524987724655
16945 1 18268148832726985447
1741750 31 18342181029647511361
1813 80 16588300528563390550
18186145 218 17346331417808812870
19026448 4 17989492939178259566
19026448 5 17676208013055115780
19049666 15 17917442981565933470
19422 9 17749670795848857802
200 152 15575261181905575298
20233049 118 18341609321849936128
20279233 1 17775567567469089686
20510252 161 18270688683127824201
20645477 56 18413673521774249417
20645477 70 16702310018364590300
212916 134 18341317925493113777
21639500 275 15338833230960406618
2255824 54 17168995654500257060
23402539 116 18272922834525510997
23402655 69 12895087205569271107
23463225 33 18186517726188985150
23493267 7 18260278446774805411
23557571 272 17989201590536101979
23559900 14 18272660017651339630
2748010 2 18339378361613209911
296302 2 14979964700217473746
474 4 16663752542307920140
495365 180 17560509599809360158
5104073 3 18114178683271542968
573450 72 18260540156069205923
58807428 26 18187927231661388115
633830 44 18202561761164719109
6430166 295 18409448068175665077
69090 78 17489586822289032967
7097593 13 17750219353272055082
7364860 26 18127130766821838527
77492 1 17603865649731989414
81228 2 17267493324610406839
90316 7 17821999904871741381

> <PUBCHEM_SHAPE_MULTIPOLES>
336.1
8
1.79
1.1
0.2
0.25
-0.09
-2.47
-1.4
-1.99
0.12
1.19
-0.02
-0.04

> <PUBCHEM_SHAPE_SELFOVERLAP>
725.333

> <PUBCHEM_SHAPE_VOLUME>
182.9

> <PUBCHEM_COORDINATE_TYPE>
2
5
10

$$$$
