5281157
  -OEChem-03092322173D

 35 36  0     0  0  0  0  0  0999 V2000
   -6.6424    1.0100    0.0016 O   0  0  0  0  0  0  0  0  0  0  0  0
   -3.8910   -3.0524    0.4282 O   0  0  0  0  0  0  0  0  0  0  0  0
   -0.2861    2.1894    0.1290 O   0  0  0  0  0  0  0  0  0  0  0  0
    7.5246   -0.9767   -0.0328 O   0  0  0  0  0  0  0  0  0  0  0  0
   -1.9566   -2.5646   -0.6611 O   0  0  0  0  0  0  0  0  0  0  0  0
   -1.1826    0.0233   -0.0031 N   0  0  0  0  0  0  0  0  0  0  0  0
   -2.5797    0.2574   -0.0033 C   0  0  0  0  0  0  0  0  0  0  0  0
   -3.4664   -0.8048   -0.0715 C   0  0  0  0  0  0  0  0  0  0  0  0
   -3.0271    1.5669    0.0664 C   0  0  0  0  0  0  0  0  0  0  0  0
   -4.8379   -0.5510   -0.0702 C   0  0  0  0  0  0  0  0  0  0  0  0
   -5.3042    0.7618   -0.0005 C   0  0  0  0  0  0  0  0  0  0  0  0
   -4.3986    1.8208    0.0679 C   0  0  0  0  0  0  0  0  0  0  0  0
    3.6591    0.5327    0.0477 C   0  0  0  0  0  0  0  0  0  0  0  0
   -0.1697    0.9714    0.0600 C   0  0  0  0  0  0  0  0  0  0  0  0
    2.3047    1.0624    0.0753 C   0  0  0  0  0  0  0  0  0  0  0  0
    1.1755    0.3194    0.0360 C   0  0  0  0  0  0  0  0  0  0  0  0
    3.8954   -0.7981    0.3914 C   0  0  0  0  0  0  0  0  0  0  0  0
    4.7218    1.3568   -0.3230 C   0  0  0  0  0  0  0  0  0  0  0  0
   -3.0119   -2.1878   -0.1456 C   0  0  0  0  0  0  0  0  0  0  0  0
    5.1945   -1.3053    0.3644 C   0  0  0  0  0  0  0  0  0  0  0  0
    6.0210    0.8498   -0.3500 C   0  0  0  0  0  0  0  0  0  0  0  0
    6.2574   -0.4814   -0.0064 C   0  0  0  0  0  0  0  0  0  0  0  0
   -2.4001    2.4433    0.1216 H   0  0  0  0  0  0  0  0  0  0  0  0
   -5.5649   -1.3571   -0.1360 H   0  0  0  0  0  0  0  0  0  0  0  0
   -0.9059   -0.9536   -0.0527 H   0  0  0  0  0  0  0  0  0  0  0  0
   -4.7506    2.8477    0.1226 H   0  0  0  0  0  0  0  0  0  0  0  0
    2.2294    2.1467    0.1210 H   0  0  0  0  0  0  0  0  0  0  0  0
    1.1995   -0.7621   -0.0372 H   0  0  0  0  0  0  0  0  0  0  0  0
    3.1032   -1.4710    0.7061 H   0  0  0  0  0  0  0  0  0  0  0  0
    4.5569    2.3965   -0.5956 H   0  0  0  0  0  0  0  0  0  0  0  0
    5.3665   -2.3428    0.6386 H   0  0  0  0  0  0  0  0  0  0  0  0
    6.8449    1.4962   -0.6400 H   0  0  0  0  0  0  0  0  0  0  0  0
   -6.7846    1.9707    0.0545 H   0  0  0  0  0  0  0  0  0  0  0  0
   -3.5780   -3.9807    0.3746 H   0  0  0  0  0  0  0  0  0  0  0  0
    7.5030   -1.9121    0.2330 H   0  0  0  0  0  0  0  0  0  0  0  0
  1 11  1  0  0  0  0
  1 33  1  0  0  0  0
  2 19  1  0  0  0  0
  2 34  1  0  0  0  0
  3 14  2  0  0  0  0
  4 22  1  0  0  0  0
  4 35  1  0  0  0  0
  5 19  2  0  0  0  0
  6  7  1  0  0  0  0
  6 14  1  0  0  0  0
  6 25  1  0  0  0  0
  7  8  2  0  0  0  0
  7  9  1  0  0  0  0
  8 10  1  0  0  0  0
  8 19  1  0  0  0  0
  9 12  2  0  0  0  0
  9 23  1  0  0  0  0
 10 11  2  0  0  0  0
 10 24  1  0  0  0  0
 11 12  1  0  0  0  0
 12 26  1  0  0  0  0
 13 15  1  0  0  0  0
 13 17  2  0  0  0  0
 13 18  1  0  0  0  0
 14 16  1  0  0  0  0
 15 16  2  0  0  0  0
 15 27  1  0  0  0  0
 16 28  1  0  0  0  0
 17 20  1  0  0  0  0
 17 29  1  0  0  0  0
 18 21  2  0  0  0  0
 18 30  1  0  0  0  0
 20 22  2  0  0  0  0
 20 31  1  0  0  0  0
 21 22  1  0  0  0  0
 21 32  1  0  0  0  0
M  END
> <PUBCHEM_COMPOUND_CID>
5281157

> <PUBCHEM_CONFORMER_RMSD>
0.8

> <PUBCHEM_CONFORMER_DIVERSEORDER>
1
8
4
7
6
5
3
2

> <PUBCHEM_MMFF94_PARTIAL_CHARGES>
35
1 -0.53
10 -0.15
11 0.08
12 -0.15
13 0.03
14 0.62
15 -0.18
16 -0.14
17 -0.15
18 -0.15
19 0.63
2 -0.65
20 -0.15
21 -0.15
22 0.08
23 0.15
24 0.15
25 0.37
26 0.15
27 0.15
28 0.15
29 0.15
3 -0.57
30 0.15
31 0.15
32 0.15
33 0.45
34 0.5
35 0.45
4 -0.53
5 -0.57
6 -0.55
7 0.12
8 0.09
9 -0.15

> <PUBCHEM_EFFECTIVE_ROTOR_COUNT>
5

> <PUBCHEM_PHARMACOPHORE_FEATURES>
9
1 1 donor
1 2 acceptor
1 3 acceptor
1 4 donor
1 5 acceptor
1 6 donor
3 2 5 19 anion
6 13 17 18 20 21 22 rings
6 7 8 9 10 11 12 rings

> <PUBCHEM_HEAVY_ATOM_COUNT>
22

> <PUBCHEM_ATOM_DEF_STEREO_COUNT>
0

> <PUBCHEM_ATOM_UDEF_STEREO_COUNT>
0

> <PUBCHEM_BOND_DEF_STEREO_COUNT>
1

> <PUBCHEM_BOND_UDEF_STEREO_COUNT>
0

> <PUBCHEM_ISOTOPIC_ATOM_COUNT>
0

> <PUBCHEM_COMPONENT_COUNT>
1

> <PUBCHEM_CACTVS_TAUTO_COUNT>
16

> <PUBCHEM_CONFORMER_ID>
0050958500000001

> <PUBCHEM_MMFF94_ENERGY>
70.2779

> <PUBCHEM_FEATURE_SELFOVERLAP>
45.729

> <PUBCHEM_SHAPE_FINGERPRINT>
10299344 5 18333734607008259284
10411042 1 18050849124995684895
10595046 47 18335142050601123204
10835480 77 18342169024998349392
11045977 3 17988919002936119072
11315181 36 17489870448928132377
11524674 6 17489867137466214615
11796584 16 18342460339934616774
12107183 9 17688588260844814144
12236239 1 18186240645206528412
12516196 113 18060698394767911416
12616971 3 17385447652258501844
12788726 201 17774157873324536769
12916748 109 8790887397655459728
13167823 11 18408602595690231250
13288520 33 18411699889960234349
13533116 47 17417249823474997982
13914758 101 14836132018227049571
14251764 18 18342740724026323589
14341114 176 18411703209574497216
14420673 8 18410858745884060522
14617045 38 18409450254277329418
15042514 8 18336549443223597931
15183329 4 18408882919151457122
15196674 1 18410011074306630546
15250474 111 18262503867063558218
15537594 2 17894627037400659162
15849732 13 17748828506134787261
17492 89 18048598411090735707
17844677 252 18411706508346900296
17857418 61 18410853257406063978
19141452 34 18408885152639965621
19489759 90 17203610363454077937
20681677 155 18334292076314418465
21236236 1 18412262869946784767
21267235 1 18335987549467894209
220451 1 18187086144205337048
23035841 295 18408603651993736344
23402539 116 18411697694778181212
23536379 177 18408041788783299896
23559900 14 18270673285290909689
3004659 81 18334294254437902088
335352 9 18411134741210352685
3545911 37 18411699872221130993
4073 2 18113904909540153618
4214541 1 18410855468771097248
4325135 7 18260832588335793668
5104073 3 18272090547352299728
559249 180 18410854365312642383
59755656 215 18342461387932959206
59755656 520 16950282914262948747
6327066 14 17826504471627000205
67856867 119 18262804098304758340
7226269 152 17917433086505025361
7495541 125 18059855108447140160
999808 66 17895206532100777003

> <PUBCHEM_SHAPE_MULTIPOLES>
418.42
18.02
2.36
0.64
15.95
1.35
0.01
1.2
0.23
-2.57
0.01
0.08
0.05
-0.41

> <PUBCHEM_SHAPE_SELFOVERLAP>
903.449

> <PUBCHEM_SHAPE_VOLUME>
228.2

> <PUBCHEM_COORDINATE_TYPE>
2
5
10

$$$$
