5283266
  -OEChem-03102308032D

 67 66  0     1  0  0  0  0  0999 V2000
    7.1962   -3.5950    0.0000 O   0  0  0  0  0  0  0  0  0  0  0  0
    5.4641   -3.5950    0.0000 O   0  0  0  0  0  0  0  0  0  0  0  0
    3.7320   -2.5950    0.0000 O   0  0  0  0  0  0  0  0  0  0  0  0
    2.8660   -1.0950    0.0000 O   0  0  0  0  0  0  0  0  0  0  0  0
   10.6603   -2.5950    0.0000 C   0  0  0  0  0  0  0  0  0  0  0  0
    9.7942   -2.0950    0.0000 C   0  0  0  0  0  0  0  0  0  0  0  0
   11.5263   -2.0950    0.0000 C   0  0  0  0  0  0  0  0  0  0  0  0
    8.9282   -2.5950    0.0000 C   0  0  0  0  0  0  0  0  0  0  0  0
   12.3923   -2.5950    0.0000 C   0  0  0  0  0  0  0  0  0  0  0  0
    8.0622   -2.0950    0.0000 C   0  0  0  0  0  0  0  0  0  0  0  0
   13.2583   -2.0950    0.0000 C   0  0  0  0  0  0  0  0  0  0  0  0
    7.1962   -2.5950    0.0000 C   0  0  0  0  0  0  0  0  0  0  0  0
    6.3301   -2.0950    0.0000 C   0  0  0  0  0  0  0  0  0  0  0  0
    5.4641   -2.5950    0.0000 C   0  0  3  0  0  0  0  0  0  0  0  0
   14.1244   -2.5950    0.0000 C   0  0  0  0  0  0  0  0  0  0  0  0
    4.5981   -2.0950    0.0000 C   0  0  0  0  0  0  0  0  0  0  0  0
   14.9904    1.9050    0.0000 C   0  0  0  0  0  0  0  0  0  0  0  0
   14.1244    2.4050    0.0000 C   0  0  0  0  0  0  0  0  0  0  0  0
   14.9904    0.9050    0.0000 C   0  0  0  0  0  0  0  0  0  0  0  0
   14.9904   -2.0950    0.0000 C   0  0  0  0  0  0  0  0  0  0  0  0
   14.1244    3.4050    0.0000 C   0  0  0  0  0  0  0  0  0  0  0  0
   14.9904   -1.0950    0.0000 C   0  0  0  0  0  0  0  0  0  0  0  0
   15.8564    0.4050    0.0000 C   0  0  0  0  0  0  0  0  0  0  0  0
   15.8564   -0.5950    0.0000 C   0  0  0  0  0  0  0  0  0  0  0  0
   13.2583    3.9050    0.0000 C   0  0  0  0  0  0  0  0  0  0  0  0
    2.8660   -2.0950    0.0000 C   0  0  0  0  0  0  0  0  0  0  0  0
    2.0000   -2.5950    0.0000 C   0  0  0  0  0  0  0  0  0  0  0  0
   10.2617   -3.0700    0.0000 H   0  0  0  0  0  0  0  0  0  0  0  0
   11.0588   -3.0700    0.0000 H   0  0  0  0  0  0  0  0  0  0  0  0
   10.1928   -1.6200    0.0000 H   0  0  0  0  0  0  0  0  0  0  0  0
    9.3957   -1.6200    0.0000 H   0  0  0  0  0  0  0  0  0  0  0  0
   11.9248   -1.6200    0.0000 H   0  0  0  0  0  0  0  0  0  0  0  0
   11.1278   -1.6200    0.0000 H   0  0  0  0  0  0  0  0  0  0  0  0
    8.5297   -3.0700    0.0000 H   0  0  0  0  0  0  0  0  0  0  0  0
    9.3267   -3.0700    0.0000 H   0  0  0  0  0  0  0  0  0  0  0  0
   11.9938   -3.0700    0.0000 H   0  0  0  0  0  0  0  0  0  0  0  0
   12.7908   -3.0700    0.0000 H   0  0  0  0  0  0  0  0  0  0  0  0
    8.4607   -1.6200    0.0000 H   0  0  0  0  0  0  0  0  0  0  0  0
    7.6636   -1.6200    0.0000 H   0  0  0  0  0  0  0  0  0  0  0  0
   13.6569   -1.6200    0.0000 H   0  0  0  0  0  0  0  0  0  0  0  0
   12.8598   -1.6200    0.0000 H   0  0  0  0  0  0  0  0  0  0  0  0
    6.7287   -1.6200    0.0000 H   0  0  0  0  0  0  0  0  0  0  0  0
    5.9316   -1.6200    0.0000 H   0  0  0  0  0  0  0  0  0  0  0  0
    6.2002   -3.0200    0.0000 H   0  0  0  0  0  0  0  0  0  0  0  0
   14.1244   -3.2150    0.0000 H   0  0  0  0  0  0  0  0  0  0  0  0
   15.6010    1.7973    0.0000 H   0  0  0  0  0  0  0  0  0  0  0  0
   15.2024    2.4876    0.0000 H   0  0  0  0  0  0  0  0  0  0  0  0
    4.9966   -1.6200    0.0000 H   0  0  0  0  0  0  0  0  0  0  0  0
    4.1996   -1.6200    0.0000 H   0  0  0  0  0  0  0  0  0  0  0  0
   13.5138    2.5127    0.0000 H   0  0  0  0  0  0  0  0  0  0  0  0
   13.9123    1.8224    0.0000 H   0  0  0  0  0  0  0  0  0  0  0  0
   14.3798    1.0127    0.0000 H   0  0  0  0  0  0  0  0  0  0  0  0
   14.7783    0.3224    0.0000 H   0  0  0  0  0  0  0  0  0  0  0  0
   15.5273   -2.4050    0.0000 H   0  0  0  0  0  0  0  0  0  0  0  0
   14.7349    3.2973    0.0000 H   0  0  0  0  0  0  0  0  0  0  0  0
   14.3364    3.9876    0.0000 H   0  0  0  0  0  0  0  0  0  0  0  0
   14.7783   -0.5124    0.0000 H   0  0  0  0  0  0  0  0  0  0  0  0
   14.3798   -1.2027    0.0000 H   0  0  0  0  0  0  0  0  0  0  0  0
   16.3933    0.7150    0.0000 H   0  0  0  0  0  0  0  0  0  0  0  0
   16.3933   -0.9050    0.0000 H   0  0  0  0  0  0  0  0  0  0  0  0
    4.9272   -3.9050    0.0000 H   0  0  0  0  0  0  0  0  0  0  0  0
   13.5683    4.4419    0.0000 H   0  0  0  0  0  0  0  0  0  0  0  0
   12.7214    4.2150    0.0000 H   0  0  0  0  0  0  0  0  0  0  0  0
   12.9483    3.3681    0.0000 H   0  0  0  0  0  0  0  0  0  0  0  0
    1.6900   -2.0581    0.0000 H   0  0  0  0  0  0  0  0  0  0  0  0
    1.4631   -2.9050    0.0000 H   0  0  0  0  0  0  0  0  0  0  0  0
    2.3100   -3.1319    0.0000 H   0  0  0  0  0  0  0  0  0  0  0  0
  1 12  2  0  0  0  0
  2 14  1  0  0  0  0
  2 61  1  0  0  0  0
  3 16  1  0  0  0  0
  3 26  1  0  0  0  0
  4 26  2  0  0  0  0
  5  6  1  0  0  0  0
  5  7  1  0  0  0  0
  5 28  1  0  0  0  0
  5 29  1  0  0  0  0
  6  8  1  0  0  0  0
  6 30  1  0  0  0  0
  6 31  1  0  0  0  0
  7  9  1  0  0  0  0
  7 32  1  0  0  0  0
  7 33  1  0  0  0  0
  8 10  1  0  0  0  0
  8 34  1  0  0  0  0
  8 35  1  0  0  0  0
  9 11  1  0  0  0  0
  9 36  1  0  0  0  0
  9 37  1  0  0  0  0
 10 12  1  0  0  0  0
 10 38  1  0  0  0  0
 10 39  1  0  0  0  0
 11 15  1  0  0  0  0
 11 40  1  0  0  0  0
 11 41  1  0  0  0  0
 12 13  1  0  0  0  0
 13 14  1  0  0  0  0
 13 42  1  0  0  0  0
 13 43  1  0  0  0  0
 14 16  1  0  0  0  0
 14 44  1  0  0  0  0
 15 20  2  0  0  0  0
 15 45  1  0  0  0  0
 16 48  1  0  0  0  0
 16 49  1  0  0  0  0
 17 18  1  0  0  0  0
 17 19  1  0  0  0  0
 17 46  1  0  0  0  0
 17 47  1  0  0  0  0
 18 21  1  0  0  0  0
 18 50  1  0  0  0  0
 18 51  1  0  0  0  0
 19 23  1  0  0  0  0
 19 52  1  0  0  0  0
 19 53  1  0  0  0  0
 20 22  1  0  0  0  0
 20 54  1  0  0  0  0
 21 25  1  0  0  0  0
 21 55  1  0  0  0  0
 21 56  1  0  0  0  0
 22 24  1  0  0  0  0
 22 57  1  0  0  0  0
 22 58  1  0  0  0  0
 23 24  2  0  0  0  0
 23 59  1  0  0  0  0
 24 60  1  0  0  0  0
 25 62  1  0  0  0  0
 25 63  1  0  0  0  0
 25 64  1  0  0  0  0
 26 27  1  0  0  0  0
 27 65  1  0  0  0  0
 27 66  1  0  0  0  0
 27 67  1  0  0  0  0
M  END
> <PUBCHEM_COMPOUND_CID>
5283266

> <PUBCHEM_COMPOUND_CANONICALIZED>
1

> <PUBCHEM_CACTVS_COMPLEXITY>
426

> <PUBCHEM_CACTVS_HBOND_ACCEPTOR>
4

> <PUBCHEM_CACTVS_HBOND_DONOR>
1

> <PUBCHEM_CACTVS_ROTATABLE_BOND>
19

> <PUBCHEM_CACTVS_SUBSKEYS>
AAADcfB4OAAAAAAAAAAAAAAAAAAAAAAAAAAAAAAAAAAAAAAAAAAAGgAACAAACBSggAICCAAABgCIAKDSCAAAAAAgAAAICAEAAAgBEBYAAQACQAAEoAALAAOKyKCAAAAAAAAAAAAAAAAAAAAAAAAAAAAAAA==

> <PUBCHEM_IUPAC_OPENEYE_NAME>
[(12Z,15Z)-2-hydroxy-4-oxo-henicosa-12,15-dienyl] acetate

> <PUBCHEM_IUPAC_CAS_NAME>
acetic acid [(12Z,15Z)-2-hydroxy-4-oxoheneicosa-12,15-dienyl] ester

> <PUBCHEM_IUPAC_NAME_MARKUP>
[(12<I>Z</I>,15<I>Z</I>)-2-hydroxy-4-oxohenicosa-12,15-dienyl] acetate

> <PUBCHEM_IUPAC_NAME>
[(12Z,15Z)-2-hydroxy-4-oxohenicosa-12,15-dienyl] acetate

> <PUBCHEM_IUPAC_SYSTEMATIC_NAME>
[(12Z,15Z)-2-oxidanyl-4-oxidanylidene-henicosa-12,15-dienyl] ethanoate

> <PUBCHEM_IUPAC_TRADITIONAL_NAME>
acetic acid [(12Z,15Z)-2-hydroxy-4-keto-heneicosa-12,15-dienyl] ester

> <PUBCHEM_IUPAC_INCHI>
InChI=1S/C23H40O4/c1-3-4-5-6-7-8-9-10-11-12-13-14-15-16-17-18-22(25)19-23(26)20-27-21(2)24/h7-8,10-11,23,26H,3-6,9,12-20H2,1-2H3/b8-7-,11-10-

> <PUBCHEM_IUPAC_INCHIKEY>
IBDVBNUJEGRVQN-NQLNTKRDSA-N

> <PUBCHEM_XLOGP3_AA>
5.9

> <PUBCHEM_EXACT_MASS>
380.29265975

> <PUBCHEM_MOLECULAR_FORMULA>
C23H40O4

> <PUBCHEM_MOLECULAR_WEIGHT>
380.6

> <PUBCHEM_OPENEYE_CAN_SMILES>
CCCCCC=CCC=CCCCCCCCC(=O)CC(COC(=O)C)O

> <PUBCHEM_OPENEYE_ISO_SMILES>
CCCCC/C=C\C/C=C\CCCCCCCC(=O)CC(COC(=O)C)O

> <PUBCHEM_CACTVS_TPSA>
63.6

> <PUBCHEM_MONOISOTOPIC_WEIGHT>
380.29265975

> <PUBCHEM_TOTAL_CHARGE>
0

> <PUBCHEM_HEAVY_ATOM_COUNT>
27

> <PUBCHEM_ATOM_DEF_STEREO_COUNT>
0

> <PUBCHEM_ATOM_UDEF_STEREO_COUNT>
1

> <PUBCHEM_BOND_DEF_STEREO_COUNT>
2

> <PUBCHEM_BOND_UDEF_STEREO_COUNT>
0

> <PUBCHEM_ISOTOPIC_ATOM_COUNT>
0

> <PUBCHEM_COMPONENT_COUNT>
1

> <PUBCHEM_CACTVS_TAUTO_COUNT>
3

> <PUBCHEM_COORDINATE_TYPE>
1
5
255

> <PUBCHEM_BONDANNOTATIONS>
14  44  3

$$$$
