58473841
  -OEChem-03092320453D

 53 53  0     1  0  0  0  0  0999 V2000
   -0.7974   -0.1590   -2.4001 O   0  0  0  0  0  0  0  0  0  0  0  0
    0.4374   -2.6735   -1.5236 O   0  0  0  0  0  0  0  0  0  0  0  0
    2.2040    1.0743    0.6750 O   0  0  0  0  0  0  0  0  0  0  0  0
   -1.6983   -1.8562    0.4873 O   0  0  0  0  0  0  0  0  0  0  0  0
    3.2336   -2.6484   -0.9131 O   0  0  0  0  0  0  0  0  0  0  0  0
   -0.0339    0.7738   -0.2305 C   0  0  1  0  0  0  0  0  0  0  0  0
   -0.5453   -0.4377   -1.0393 C   0  0  2  0  0  0  0  0  0  0  0  0
    0.5687   -1.4384   -0.9399 C   0  0  0  0  0  0  0  0  0  0  0  0
    1.3843    0.3647    0.1101 C   0  0  0  0  0  0  0  0  0  0  0  0
   -0.0517    2.1090   -0.9597 C   0  0  0  0  0  0  0  0  0  0  0  0
    1.6645   -1.0199   -0.3031 C   0  0  0  0  0  0  0  0  0  0  0  0
   -1.7815   -1.0357   -0.4257 C   0  0  0  0  0  0  0  0  0  0  0  0
    2.8852   -1.7792   -0.0981 C   0  0  0  0  0  0  0  0  0  0  0  0
   -3.1055   -0.5662   -1.0078 C   0  0  0  0  0  0  0  0  0  0  0  0
   -0.0341    3.2584    0.0055 C   0  0  0  0  0  0  0  0  0  0  0  0
    3.7116   -1.4846    1.1612 C   0  0  0  0  0  0  0  0  0  0  0  0
    0.8548    4.2677    0.0704 C   0  0  0  0  0  0  0  0  0  0  0  0
   -4.2672   -1.1474   -0.2616 C   0  0  0  0  0  0  0  0  0  0  0  0
    2.8588   -1.7262    2.4023 C   0  0  0  0  0  0  0  0  0  0  0  0
    4.9855   -2.3251    1.2061 C   0  0  0  0  0  0  0  0  0  0  0  0
    1.9959    4.3432   -0.9088 C   0  0  0  0  0  0  0  0  0  0  0  0
    0.8151    5.3923    1.0658 C   0  0  0  0  0  0  0  0  0  0  0  0
   -4.8693   -0.6446    0.8330 C   0  0  0  0  0  0  0  0  0  0  0  0
   -6.0352   -1.2769    1.5387 C   0  0  0  0  0  0  0  0  0  0  0  0
   -4.3799    0.6351    1.4559 C   0  0  0  0  0  0  0  0  0  0  0  0
   -0.5743    0.8355    0.7248 H   0  0  0  0  0  0  0  0  0  0  0  0
    0.7412    2.1546   -1.7104 H   0  0  0  0  0  0  0  0  0  0  0  0
   -0.9956    2.2045   -1.5121 H   0  0  0  0  0  0  0  0  0  0  0  0
   -0.8904   -1.0006   -2.8789 H   0  0  0  0  0  0  0  0  0  0  0  0
   -3.1733   -0.9039   -2.0480 H   0  0  0  0  0  0  0  0  0  0  0  0
   -3.1360    0.5273   -1.0176 H   0  0  0  0  0  0  0  0  0  0  0  0
   -0.8509    3.2658    0.7266 H   0  0  0  0  0  0  0  0  0  0  0  0
    4.0316   -0.4382    1.1251 H   0  0  0  0  0  0  0  0  0  0  0  0
    1.2498   -3.1826   -1.3651 H   0  0  0  0  0  0  0  0  0  0  0  0
   -4.6509   -2.0833   -0.6651 H   0  0  0  0  0  0  0  0  0  0  0  0
    2.4711   -2.7511    2.4205 H   0  0  0  0  0  0  0  0  0  0  0  0
    1.9999   -1.0510    2.4564 H   0  0  0  0  0  0  0  0  0  0  0  0
    3.4484   -1.5726    3.3126 H   0  0  0  0  0  0  0  0  0  0  0  0
    4.7559   -3.3958    1.2414 H   0  0  0  0  0  0  0  0  0  0  0  0
    5.6020   -2.1471    0.3182 H   0  0  0  0  0  0  0  0  0  0  0  0
    5.5860   -2.0770    2.0876 H   0  0  0  0  0  0  0  0  0  0  0  0
    2.8734    4.7945   -0.4310 H   0  0  0  0  0  0  0  0  0  0  0  0
    2.3318    3.3702   -1.2737 H   0  0  0  0  0  0  0  0  0  0  0  0
    1.7202    4.9706   -1.7624 H   0  0  0  0  0  0  0  0  0  0  0  0
   -0.0491    5.3089    1.7331 H   0  0  0  0  0  0  0  0  0  0  0  0
    0.7477    6.3556    0.5502 H   0  0  0  0  0  0  0  0  0  0  0  0
    1.7174    5.3873    1.6856 H   0  0  0  0  0  0  0  0  0  0  0  0
   -5.7678   -1.5278    2.5702 H   0  0  0  0  0  0  0  0  0  0  0  0
   -6.8885   -0.5913    1.5542 H   0  0  0  0  0  0  0  0  0  0  0  0
   -6.3556   -2.1988    1.0423 H   0  0  0  0  0  0  0  0  0  0  0  0
   -5.1288    1.4234    1.3262 H   0  0  0  0  0  0  0  0  0  0  0  0
   -3.4327    1.0028    1.0554 H   0  0  0  0  0  0  0  0  0  0  0  0
   -4.2234    0.4887    2.5307 H   0  0  0  0  0  0  0  0  0  0  0  0
  1  7  1  0  0  0  0
  1 29  1  0  0  0  0
  2  8  1  0  0  0  0
  2 34  1  0  0  0  0
  3  9  2  0  0  0  0
  4 12  2  0  0  0  0
  5 13  2  0  0  0  0
  6  7  1  0  0  0  0
  6  9  1  0  0  0  0
  6 10  1  0  0  0  0
  6 26  1  0  0  0  0
  7  8  1  0  0  0  0
  7 12  1  0  0  0  0
  8 11  2  0  0  0  0
  9 11  1  0  0  0  0
 10 15  1  0  0  0  0
 10 27  1  0  0  0  0
 10 28  1  0  0  0  0
 11 13  1  0  0  0  0
 12 14  1  0  0  0  0
 13 16  1  0  0  0  0
 14 18  1  0  0  0  0
 14 30  1  0  0  0  0
 14 31  1  0  0  0  0
 15 17  2  0  0  0  0
 15 32  1  0  0  0  0
 16 19  1  0  0  0  0
 16 20  1  0  0  0  0
 16 33  1  0  0  0  0
 17 21  1  0  0  0  0
 17 22  1  0  0  0  0
 18 23  2  0  0  0  0
 18 35  1  0  0  0  0
 19 36  1  0  0  0  0
 19 37  1  0  0  0  0
 19 38  1  0  0  0  0
 20 39  1  0  0  0  0
 20 40  1  0  0  0  0
 20 41  1  0  0  0  0
 21 42  1  0  0  0  0
 21 43  1  0  0  0  0
 21 44  1  0  0  0  0
 22 45  1  0  0  0  0
 22 46  1  0  0  0  0
 22 47  1  0  0  0  0
 23 24  1  0  0  0  0
 23 25  1  0  0  0  0
 24 48  1  0  0  0  0
 24 49  1  0  0  0  0
 24 50  1  0  0  0  0
 25 51  1  0  0  0  0
 25 52  1  0  0  0  0
 25 53  1  0  0  0  0
M  END
> <PUBCHEM_COMPOUND_CID>
58473841

> <PUBCHEM_CONFORMER_RMSD>
1

> <PUBCHEM_CONFORMER_DIVERSEORDER>
1
71
60
97
15
49
25
93
113
9
24
54
96
50
18
7
74
65
53
32
78
89
16
95
41
105
58
76
117
21
73
103
48
4
91
82
75
90
43
19
64
52
83
40
39
57
69
79
116
77
100
81
106
114
61
88
33
59
92
85
102
111
26
44
13
62
47
36
17
101
63
87
22
27
107
104
67
45
108
109
14
38
51
86
55
80
30
35
70
66
23
5
8
34
46
20
110
12
84
99
56
3
42
10
94
29
2
28
68
72
31
115
37
6
98
112
11

> <PUBCHEM_MMFF94_PARTIAL_CHARGES>
27
1 -0.68
10 0.14
11 0.03
12 0.45
13 0.49
14 0.2
15 -0.29
16 0.06
17 -0.28
18 -0.29
2 -0.53
21 0.14
22 0.14
23 -0.28
24 0.14
25 0.14
29 0.4
3 -0.57
32 0.15
34 0.45
35 0.15
4 -0.57
5 -0.57
6 0.06
7 0.48
8 -0.06
9 0.49

> <PUBCHEM_EFFECTIVE_ROTOR_COUNT>
7.4

> <PUBCHEM_PHARMACOPHORE_FEATURES>
10
1 1 acceptor
1 1 donor
1 2 donor
1 3 acceptor
1 4 acceptor
1 5 acceptor
3 16 19 20 hydrophobe
3 17 21 22 hydrophobe
3 23 24 25 hydrophobe
5 6 7 8 9 11 rings

> <PUBCHEM_HEAVY_ATOM_COUNT>
25

> <PUBCHEM_ATOM_DEF_STEREO_COUNT>
2

> <PUBCHEM_ATOM_UDEF_STEREO_COUNT>
0

> <PUBCHEM_BOND_DEF_STEREO_COUNT>
0

> <PUBCHEM_BOND_UDEF_STEREO_COUNT>
0

> <PUBCHEM_ISOTOPIC_ATOM_COUNT>
0

> <PUBCHEM_COMPONENT_COUNT>
1

> <PUBCHEM_CACTVS_TAUTO_COUNT>
36

> <PUBCHEM_CONFORMER_ID>
037C3D7100000001

> <PUBCHEM_MMFF94_ENERGY>
39.3323

> <PUBCHEM_FEATURE_SELFOVERLAP>
50.748

> <PUBCHEM_SHAPE_FINGERPRINT>
10074138 170 17614817648997031128
10764073 3 16840242484958888535
11578080 2 17385988581825147229
11796584 16 17023741200463938235
12160290 23 17617071639270254916
12293681 160 17326854450039743885
12293681 4 18048026381692872117
12549972 3 17604690241299909061
12553582 1 18411697660413467126
12633257 1 18409729565033991859
12788726 201 18262524663357832994
13103583 49 18262527992163378731
13140716 1 18267010670567355752
133893 2 17906139061323756678
13533116 47 18042976552878537507
13878862 14 18263911277013257677
14363568 33 18337666533482980060
14466204 15 18263925424387350489
14713325 29 17979626837154672718
14790565 3 17977387453791688980
14955137 171 18340215201451488988
15042514 8 18048878494123457056
15475509 35 17458633349933387627
15664445 248 18127999518910504716
15842332 3 17844521330861669927
17876694 64 18059310776807610953
17980427 23 17917708003055858537
1813 80 18411141303107938951
18785283 64 18337675346570657503
20600515 1 18272376351519088823
20642791 268 18129653243926814929
20739085 24 18342739619797722488
21033648 29 17560520578400169731
21041028 32 18337665326565053892
21344244 78 18272933830274668713
23419403 2 17969482931607433925
23558518 356 17403163807990964860
3091708 16 9500585856373701564
3187 122 18193539096186438624
3380486 145 18127669574832460031
345986 75 17750783351271408611
3552219 110 17969240957745462172
394222 165 17984432007551919129
6086070 43 18189034453514641135
79837 15 17111846527190630032
81228 2 17979896243015039876
9777508 108 17404310594413776177
9841814 1 18335425685624480843
9981440 41 17619344751033319073

> <PUBCHEM_SHAPE_MULTIPOLES>
485.14
8.65
5.58
1.74
10.72
11.1
-0.2
-8.2
-5.57
-6.04
-0.77
0.02
-0.67
-0.71

> <PUBCHEM_SHAPE_SELFOVERLAP>
992.367

> <PUBCHEM_SHAPE_VOLUME>
280.3

> <PUBCHEM_COORDINATE_TYPE>
2
5
10

$$$$
