7075896
  -OEChem-03112306573D

 32 32  0     1  0  0  0  0  0999 V2000
   -1.1626   -2.3780   -0.1822 O   0  0  0  0  0  0  0  0  0  0  0  0
    1.1627    2.3781   -0.1822 O   0  0  0  0  0  0  0  0  0  0  0  0
    0.7424   -1.0943   -0.0361 N   0  0  0  0  0  0  0  0  0  0  0  0
   -0.7424    1.0945   -0.0360 N   0  0  0  0  0  0  0  0  0  0  0  0
    1.3819    0.0746    0.5496 C   0  0  1  0  0  0  0  0  0  0  0  0
   -1.3820   -0.0745    0.5496 C   0  0  1  0  0  0  0  0  0  0  0  0
    2.8595    0.1298    0.1966 C   0  0  0  0  0  0  0  0  0  0  0  0
   -2.8595   -0.1299    0.1965 C   0  0  0  0  0  0  0  0  0  0  0  0
   -0.6279   -1.2934    0.0356 C   0  0  0  0  0  0  0  0  0  0  0  0
    0.6280    1.2935    0.0357 C   0  0  0  0  0  0  0  0  0  0  0  0
    3.5977   -1.0880    0.7544 C   0  0  0  0  0  0  0  0  0  0  0  0
    3.0537    0.2209   -1.3179 C   0  0  0  0  0  0  0  0  0  0  0  0
   -3.0536   -0.2210   -1.3179 C   0  0  0  0  0  0  0  0  0  0  0  0
   -3.5979    1.0877    0.7544 C   0  0  0  0  0  0  0  0  0  0  0  0
    1.2438    0.0256    1.6368 H   0  0  0  0  0  0  0  0  0  0  0  0
   -1.2438   -0.0255    1.6369 H   0  0  0  0  0  0  0  0  0  0  0  0
    3.3014    1.0268    0.6496 H   0  0  0  0  0  0  0  0  0  0  0  0
   -3.3012   -1.0270    0.6494 H   0  0  0  0  0  0  0  0  0  0  0  0
    1.3054   -1.8908   -0.3161 H   0  0  0  0  0  0  0  0  0  0  0  0
   -1.3054    1.8911   -0.3161 H   0  0  0  0  0  0  0  0  0  0  0  0
    3.3163   -2.0203    0.2557 H   0  0  0  0  0  0  0  0  0  0  0  0
    4.6785   -0.9660    0.6209 H   0  0  0  0  0  0  0  0  0  0  0  0
    3.4107   -1.2016    1.8275 H   0  0  0  0  0  0  0  0  0  0  0  0
    2.6482   -0.6517   -1.8409 H   0  0  0  0  0  0  0  0  0  0  0  0
    4.1236    0.2651   -1.5533 H   0  0  0  0  0  0  0  0  0  0  0  0
    2.6018    1.1157   -1.7535 H   0  0  0  0  0  0  0  0  0  0  0  0
   -2.6016   -1.1158   -1.7536 H   0  0  0  0  0  0  0  0  0  0  0  0
   -4.1235   -0.2655   -1.5534 H   0  0  0  0  0  0  0  0  0  0  0  0
   -2.6481    0.6516   -1.8410 H   0  0  0  0  0  0  0  0  0  0  0  0
   -3.4110    1.2013    1.8275 H   0  0  0  0  0  0  0  0  0  0  0  0
   -4.6787    0.9657    0.6207 H   0  0  0  0  0  0  0  0  0  0  0  0
   -3.3165    2.0202    0.2558 H   0  0  0  0  0  0  0  0  0  0  0  0
  1  9  2  0  0  0  0
  2 10  2  0  0  0  0
  3  5  1  0  0  0  0
  3  9  1  0  0  0  0
  3 19  1  0  0  0  0
  4  6  1  0  0  0  0
  4 10  1  0  0  0  0
  4 20  1  0  0  0  0
  5  7  1  0  0  0  0
  5 10  1  0  0  0  0
  5 15  1  0  0  0  0
  6  8  1  0  0  0  0
  6  9  1  0  0  0  0
  6 16  1  0  0  0  0
  7 11  1  0  0  0  0
  7 12  1  0  0  0  0
  7 17  1  0  0  0  0
  8 13  1  0  0  0  0
  8 14  1  0  0  0  0
  8 18  1  0  0  0  0
 11 21  1  0  0  0  0
 11 22  1  0  0  0  0
 11 23  1  0  0  0  0
 12 24  1  0  0  0  0
 12 25  1  0  0  0  0
 12 26  1  0  0  0  0
 13 27  1  0  0  0  0
 13 28  1  0  0  0  0
 13 29  1  0  0  0  0
 14 30  1  0  0  0  0
 14 31  1  0  0  0  0
 14 32  1  0  0  0  0
M  END
> <PUBCHEM_COMPOUND_CID>
7075896

> <PUBCHEM_CONFORMER_RMSD>
0.6

> <PUBCHEM_CONFORMER_DIVERSEORDER>
1
2
4
6
5
3

> <PUBCHEM_MMFF94_PARTIAL_CHARGES>
10
1 -0.57
10 0.57
19 0.37
2 -0.57
20 0.37
3 -0.73
4 -0.73
5 0.36
6 0.36
9 0.57

> <PUBCHEM_EFFECTIVE_ROTOR_COUNT>
2.8

> <PUBCHEM_PHARMACOPHORE_FEATURES>
7
1 1 acceptor
1 2 acceptor
1 3 donor
1 4 donor
3 7 11 12 hydrophobe
3 8 13 14 hydrophobe
6 3 4 5 6 9 10 rings

> <PUBCHEM_HEAVY_ATOM_COUNT>
14

> <PUBCHEM_ATOM_DEF_STEREO_COUNT>
2

> <PUBCHEM_ATOM_UDEF_STEREO_COUNT>
0

> <PUBCHEM_BOND_DEF_STEREO_COUNT>
0

> <PUBCHEM_BOND_UDEF_STEREO_COUNT>
0

> <PUBCHEM_ISOTOPIC_ATOM_COUNT>
0

> <PUBCHEM_COMPONENT_COUNT>
1

> <PUBCHEM_CACTVS_TAUTO_COUNT>
3

> <PUBCHEM_CONFORMER_ID>
006BF83800000001

> <PUBCHEM_MMFF94_ENERGY>
41.9146

> <PUBCHEM_FEATURE_SELFOVERLAP>
35.53

> <PUBCHEM_SHAPE_FINGERPRINT>
10130415 120 18259981557292123898
10219947 1 18409168775010588497
10465860 71 18270701842997400540
11132069 177 18200588099180080424
124424 183 17967524649563305555
12932764 1 17676480691944079001
13172582 1 18410856546754887914
13690532 89 18410566288812987699
13760787 5 18259987050175532604
14144814 61 18410573993741385986
14911166 2 18410856572524691774
14993402 34 18410856559645064415
15279308 100 18336264634307825733
15309172 13 18410015407886298003
15775835 57 18187654629812459804
16945 1 18410855473013063762
18186145 218 18342455945787395085
18511873 20 18410855464423129297
18522853 295 18410019801511318970
18619055 16 18259983786401249334
19026448 4 15719114643016317249
193761 8 17978511162915946643
19422 9 17967541180808031923
20511035 2 18057038223458502592
20645476 183 17895774992028051870
207724 885 18407758144467939363
21501502 16 18194683897785096591
2334 1 17978228588427608106
23402539 116 18200301135572749622
23402655 69 18197202660920807933
23463225 33 18263362508223994314
23552423 10 17974571600084988078
23559900 14 18341901814377427988
2748010 2 18050286160990699554
528886 8 18411980230870043033
53812654 25 18410848854927429050
57812782 119 16056876927119862153
63268167 104 18334011730692657736
7364860 26 17984986152886193752
74978 22 18338799038616305666

> <PUBCHEM_SHAPE_MULTIPOLES>
266.41
5.87
1.81
1
0
0
0.26
0
0.03
0
0.02
0
0
-0.62

> <PUBCHEM_SHAPE_SELFOVERLAP>
532.987

> <PUBCHEM_SHAPE_VOLUME>
156.4

> <PUBCHEM_COORDINATE_TYPE>
2
5
10

$$$$
