7076347
  -OEChem-03112306553D

 39 40  0     1  0  0  0  0  0999 V2000
    1.2127   -2.7788   -0.9736 O   0  0  0  0  0  0  0  0  0  0  0  0
    0.9230    2.5822   -1.1460 O   0  0  0  0  0  0  0  0  0  0  0  0
    2.1669    0.6674   -0.9561 N   0  0  0  0  0  0  0  0  0  0  0  0
   -0.0196   -0.8658   -1.2421 N   0  0  0  0  0  0  0  0  0  0  0  0
    2.3008   -0.6969   -0.4803 C   0  0  1  0  0  0  0  0  0  0  0  0
    2.5212   -0.7727    1.0215 C   0  0  0  0  0  0  0  0  0  0  0  0
   -0.2759    0.5185   -0.8907 C   0  0  2  0  0  0  0  0  0  0  0  0
    3.7467    0.0225    1.5067 C   0  0  0  0  0  0  0  0  0  0  0  0
    1.1356   -1.5505   -0.9399 C   0  0  0  0  0  0  0  0  0  0  0  0
    0.9785    1.3576   -1.0334 C   0  0  0  0  0  0  0  0  0  0  0  0
   -0.9208    0.6639    0.4777 C   0  0  0  0  0  0  0  0  0  0  0  0
    5.0389   -0.4246    0.8219 C   0  0  0  0  0  0  0  0  0  0  0  0
    3.5254    1.5180    1.2678 C   0  0  0  0  0  0  0  0  0  0  0  0
   -2.3817    0.2967    0.4514 C   0  0  0  0  0  0  0  0  0  0  0  0
   -3.3270    1.2766    0.1847 C   0  0  0  0  0  0  0  0  0  0  0  0
   -2.7600   -1.0157    0.6949 C   0  0  0  0  0  0  0  0  0  0  0  0
   -4.6797    0.9368    0.1608 C   0  0  0  0  0  0  0  0  0  0  0  0
   -4.1125   -1.3557    0.6709 C   0  0  0  0  0  0  0  0  0  0  0  0
   -5.0724   -0.3793    0.4039 C   0  0  0  0  0  0  0  0  0  0  0  0
    3.1730   -1.1008   -1.0078 H   0  0  0  0  0  0  0  0  0  0  0  0
    1.6383   -0.4237    1.5656 H   0  0  0  0  0  0  0  0  0  0  0  0
    2.6474   -1.8242    1.3117 H   0  0  0  0  0  0  0  0  0  0  0  0
   -0.9592    0.8840   -1.6692 H   0  0  0  0  0  0  0  0  0  0  0  0
    3.8433   -0.1489    2.5862 H   0  0  0  0  0  0  0  0  0  0  0  0
    3.0127    1.1728   -1.1934 H   0  0  0  0  0  0  0  0  0  0  0  0
   -0.8093   -1.4152   -1.5678 H   0  0  0  0  0  0  0  0  0  0  0  0
   -0.8238    1.6959    0.8405 H   0  0  0  0  0  0  0  0  0  0  0  0
   -0.4161    0.0490    1.2301 H   0  0  0  0  0  0  0  0  0  0  0  0
    5.9009    0.0624    1.2913 H   0  0  0  0  0  0  0  0  0  0  0  0
    5.1757   -1.5066    0.9195 H   0  0  0  0  0  0  0  0  0  0  0  0
    5.0634   -0.1694   -0.2419 H   0  0  0  0  0  0  0  0  0  0  0  0
    2.4831    1.8229    1.4019 H   0  0  0  0  0  0  0  0  0  0  0  0
    4.0922    2.0678    2.0315 H   0  0  0  0  0  0  0  0  0  0  0  0
    3.9277    1.8893    0.3232 H   0  0  0  0  0  0  0  0  0  0  0  0
   -3.0312    2.3039   -0.0082 H   0  0  0  0  0  0  0  0  0  0  0  0
   -2.0214   -1.7840    0.9055 H   0  0  0  0  0  0  0  0  0  0  0  0
   -5.4270    1.6967   -0.0477 H   0  0  0  0  0  0  0  0  0  0  0  0
   -4.4184   -2.3803    0.8605 H   0  0  0  0  0  0  0  0  0  0  0  0
   -6.1256   -0.6440    0.3852 H   0  0  0  0  0  0  0  0  0  0  0  0
  1  9  2  0  0  0  0
  2 10  2  0  0  0  0
  3  5  1  0  0  0  0
  3 10  1  0  0  0  0
  3 25  1  0  0  0  0
  4  7  1  0  0  0  0
  4  9  1  0  0  0  0
  4 26  1  0  0  0  0
  5  6  1  0  0  0  0
  5  9  1  0  0  0  0
  5 20  1  0  0  0  0
  6  8  1  0  0  0  0
  6 21  1  0  0  0  0
  6 22  1  0  0  0  0
  7 10  1  0  0  0  0
  7 11  1  0  0  0  0
  7 23  1  0  0  0  0
  8 12  1  0  0  0  0
  8 13  1  0  0  0  0
  8 24  1  0  0  0  0
 11 14  1  0  0  0  0
 11 27  1  0  0  0  0
 11 28  1  0  0  0  0
 12 29  1  0  0  0  0
 12 30  1  0  0  0  0
 12 31  1  0  0  0  0
 13 32  1  0  0  0  0
 13 33  1  0  0  0  0
 13 34  1  0  0  0  0
 14 15  2  0  0  0  0
 14 16  1  0  0  0  0
 15 17  1  0  0  0  0
 15 35  1  0  0  0  0
 16 18  2  0  0  0  0
 16 36  1  0  0  0  0
 17 19  2  0  0  0  0
 17 37  1  0  0  0  0
 18 19  1  0  0  0  0
 18 38  1  0  0  0  0
 19 39  1  0  0  0  0
M  END
> <PUBCHEM_COMPOUND_CID>
7076347

> <PUBCHEM_CONFORMER_RMSD>
0.6

> <PUBCHEM_CONFORMER_DIVERSEORDER>
1
14
18
17
11
9
12
13
8
6
10
19
5
20
3
7
21
15
2
16
4
22

> <PUBCHEM_MMFF94_PARTIAL_CHARGES>
22
1 -0.57
10 0.57
11 0.14
14 -0.14
15 -0.15
16 -0.15
17 -0.15
18 -0.15
19 -0.15
2 -0.57
25 0.37
26 0.37
3 -0.73
35 0.15
36 0.15
37 0.15
38 0.15
39 0.15
4 -0.73
5 0.36
7 0.36
9 0.57

> <PUBCHEM_EFFECTIVE_ROTOR_COUNT>
4.8

> <PUBCHEM_PHARMACOPHORE_FEATURES>
7
1 1 acceptor
1 2 acceptor
1 3 donor
1 4 donor
3 8 12 13 hydrophobe
6 14 15 16 17 18 19 rings
6 3 4 5 7 9 10 rings

> <PUBCHEM_HEAVY_ATOM_COUNT>
19

> <PUBCHEM_ATOM_DEF_STEREO_COUNT>
2

> <PUBCHEM_ATOM_UDEF_STEREO_COUNT>
0

> <PUBCHEM_BOND_DEF_STEREO_COUNT>
0

> <PUBCHEM_BOND_UDEF_STEREO_COUNT>
0

> <PUBCHEM_ISOTOPIC_ATOM_COUNT>
0

> <PUBCHEM_COMPONENT_COUNT>
1

> <PUBCHEM_CACTVS_TAUTO_COUNT>
4

> <PUBCHEM_CONFORMER_ID>
006BF9FB00000001

> <PUBCHEM_MMFF94_ENERGY>
66.4044

> <PUBCHEM_FEATURE_SELFOVERLAP>
35.527

> <PUBCHEM_SHAPE_FINGERPRINT>
10498660 4 12319458753751502403
11045977 3 18413103978729375170
11370993 70 18343580737724700227
11796584 16 15936410026750084755
12251169 10 18334011713465315627
12507560 40 17988645133987546239
12633257 1 18041002834463211753
12839892 36 18341890844213945343
14178342 30 18339090276433657385
14289901 80 17561076969705933899
14787075 74 17488733622693001803
15295992 7 16629664280512249330
15375358 24 18413670193290529227
16752209 62 12324501174311260039
17349148 13 18409729586508061653
17834072 14 18411135818946274993
1813 80 15719391690124657230
19784866 170 18411980222148369366
204376 136 17561078137515168519
20626108 58 18115302409945538657
20645477 70 18261124014508941055
21033648 29 17774143631012646425
21069387 34 16950568830499463699
21501925 9 18334296478735050165
21637258 2 16298652911956144000
221357 26 7997971267502002387
22854114 59 17989204836977450899
231179 274 16630521821765678584
23402539 116 18261666018096932805
23557571 272 18262797359025972633
23559900 14 18267597818413801023
24859131 72 18335696113797418264
25 1 10952052242806179372
2838139 119 14979950406909120506
296302 2 17632577128670788875
347723 3 10665222640363047948
394222 165 17752504306234197212
427121 178 17561086929513839354
465052 167 18041003963733701122
474 4 14908178681214428569
4990 188 8646767806895136800
5104073 3 18188787153382189593
67856867 119 18189618426753344773
81228 2 17754752532365923749
9709674 26 18335719251472531163
9999458 23 17918268771070818328

> <PUBCHEM_SHAPE_MULTIPOLES>
369.31
9.55
2.01
1.35
4.4
0.13
-0.03
0.25
4.53
-0.43
-0.64
-1.11
-0.03
0.45

> <PUBCHEM_SHAPE_SELFOVERLAP>
768.521

> <PUBCHEM_SHAPE_VOLUME>
208.7

> <PUBCHEM_COORDINATE_TYPE>
2
5
10

$$$$
