7076549
  -OEChem-03112306393D

 27 28  0     1  0  0  0  0  0999 V2000
    2.1083    2.6406   -0.3166 O   0  0  0  0  0  0  0  0  0  0  0  0
    2.3430   -2.6821   -0.3300 O   0  0  0  0  0  0  0  0  0  0  0  0
    1.2111   -0.7402   -0.8290 N   0  0  0  0  0  0  0  0  0  0  0  0
    3.1547    0.6874    0.3008 N   0  0  0  0  0  0  0  0  0  0  0  0
    0.8286    0.6048   -0.4282 C   0  0  1  0  0  0  0  0  0  0  0  0
   -0.0935    0.6132    0.7816 C   0  0  0  0  0  0  0  0  0  0  0  0
    2.0869    1.4181   -0.1841 C   0  0  0  0  0  0  0  0  0  0  0  0
   -1.5097    0.2581    0.4100 C   0  0  0  0  0  0  0  0  0  0  0  0
    3.0166   -0.6684    0.7871 C   0  0  0  0  0  0  0  0  0  0  0  0
    2.2000   -1.4688   -0.1961 C   0  0  0  0  0  0  0  0  0  0  0  0
   -2.3934    1.2651    0.0492 C   0  0  0  0  0  0  0  0  0  0  0  0
   -1.9092   -1.0703    0.4343 C   0  0  0  0  0  0  0  0  0  0  0  0
   -3.7046    0.9366   -0.2948 C   0  0  0  0  0  0  0  0  0  0  0  0
   -3.2205   -1.3988    0.0902 C   0  0  0  0  0  0  0  0  0  0  0  0
   -4.1183   -0.3954   -0.2743 C   0  0  0  0  0  0  0  0  0  0  0  0
    0.3361    1.0476   -1.3032 H   0  0  0  0  0  0  0  0  0  0  0  0
   -0.0942    1.6069    1.2502 H   0  0  0  0  0  0  0  0  0  0  0  0
    0.2569   -0.0685    1.5666 H   0  0  0  0  0  0  0  0  0  0  0  0
    0.6100   -1.2296   -1.4850 H   0  0  0  0  0  0  0  0  0  0  0  0
    2.5272   -0.6538    1.7641 H   0  0  0  0  0  0  0  0  0  0  0  0
    4.0181   -1.0980    0.8735 H   0  0  0  0  0  0  0  0  0  0  0  0
    4.0117    1.1876    0.5162 H   0  0  0  0  0  0  0  0  0  0  0  0
   -2.0807    2.3053    0.0278 H   0  0  0  0  0  0  0  0  0  0  0  0
   -1.2190   -1.8598    0.7177 H   0  0  0  0  0  0  0  0  0  0  0  0
   -4.4034    1.7177   -0.5793 H   0  0  0  0  0  0  0  0  0  0  0  0
   -3.5426   -2.4358    0.1064 H   0  0  0  0  0  0  0  0  0  0  0  0
   -5.1392   -0.6511   -0.5422 H   0  0  0  0  0  0  0  0  0  0  0  0
  1  7  2  0  0  0  0
  2 10  2  0  0  0  0
  3  5  1  0  0  0  0
  3 10  1  0  0  0  0
  3 19  1  0  0  0  0
  4  7  1  0  0  0  0
  4  9  1  0  0  0  0
  4 22  1  0  0  0  0
  5  6  1  0  0  0  0
  5  7  1  0  0  0  0
  5 16  1  0  0  0  0
  6  8  1  0  0  0  0
  6 17  1  0  0  0  0
  6 18  1  0  0  0  0
  8 11  2  0  0  0  0
  8 12  1  0  0  0  0
  9 10  1  0  0  0  0
  9 20  1  0  0  0  0
  9 21  1  0  0  0  0
 11 13  1  0  0  0  0
 11 23  1  0  0  0  0
 12 14  2  0  0  0  0
 12 24  1  0  0  0  0
 13 15  2  0  0  0  0
 13 25  1  0  0  0  0
 14 15  1  0  0  0  0
 14 26  1  0  0  0  0
 15 27  1  0  0  0  0
M  END
> <PUBCHEM_COMPOUND_CID>
7076549

> <PUBCHEM_CONFORMER_RMSD>
0.6

> <PUBCHEM_CONFORMER_DIVERSEORDER>
1
9
4
6
5
8
7
3
2

> <PUBCHEM_MMFF94_PARTIAL_CHARGES>
22
1 -0.57
10 0.57
11 -0.15
12 -0.15
13 -0.15
14 -0.15
15 -0.15
19 0.37
2 -0.57
22 0.37
23 0.15
24 0.15
25 0.15
26 0.15
27 0.15
3 -0.73
4 -0.73
5 0.36
6 0.14
7 0.57
8 -0.14
9 0.36

> <PUBCHEM_EFFECTIVE_ROTOR_COUNT>
2.8

> <PUBCHEM_PHARMACOPHORE_FEATURES>
6
1 1 acceptor
1 2 acceptor
1 3 donor
1 4 donor
6 3 4 5 7 9 10 rings
6 8 11 12 13 14 15 rings

> <PUBCHEM_HEAVY_ATOM_COUNT>
15

> <PUBCHEM_ATOM_DEF_STEREO_COUNT>
1

> <PUBCHEM_ATOM_UDEF_STEREO_COUNT>
0

> <PUBCHEM_BOND_DEF_STEREO_COUNT>
0

> <PUBCHEM_BOND_UDEF_STEREO_COUNT>
0

> <PUBCHEM_ISOTOPIC_ATOM_COUNT>
0

> <PUBCHEM_COMPONENT_COUNT>
1

> <PUBCHEM_CACTVS_TAUTO_COUNT>
4

> <PUBCHEM_CONFORMER_ID>
006BFAC500000001

> <PUBCHEM_MMFF94_ENERGY>
48.2593

> <PUBCHEM_FEATURE_SELFOVERLAP>
30.454

> <PUBCHEM_SHAPE_FINGERPRINT>
10608611 8 18408038528908435845
10616163 171 18267586995080630855
10922523 26 18260266326524633189
116883 192 18193555562806383844
12162725 195 18410292527644974409
12932764 1 18336001816900988365
13296908 3 18342742883967768007
13571099 22 18341331080893648843
14144814 61 18410858746010329945
14350558 41 18413672400365538683
14415576 193 18262521514788323428
15219456 202 18409729573459726893
15375462 6 18337673117467027693
15442244 35 18195811773466780633
16945 1 18410867559072198688
17492 89 18411135840348135343
17990270 104 18410296887042022194
18186145 218 18338520738068865173
18619055 16 18342738529108020847
200 152 18059851779435652021
20201158 50 18411138034748577043
20559304 39 18413672422051618536
20645477 56 18187363217030941285
20645477 70 18409727365989260511
20671657 53 18198070174798362622
21501502 16 18411421726181665417
21501925 9 18412256229378485178
221490 88 18336557100200987194
23402539 116 18337658768287279389
23463225 33 18412544301641155749
23559900 14 18341044125628326434
57812782 119 18333728014022463325
58051976 100 18410295813611402247
58051976 378 18341049721770207653
69090 78 18410849954665975095
7364860 26 18411983576538978440
74978 22 18337398149444592809
81539 233 18262238953522341132
93112 12 18409167697248129669
9709674 26 18408889555150749147

> <PUBCHEM_SHAPE_MULTIPOLES>
286.99
6.84
2.17
0.79
3.45
0.13
0.04
0.65
-0.16
-1.52
-0.28
-0.12
0.04
0.09

> <PUBCHEM_SHAPE_SELFOVERLAP>
607.792

> <PUBCHEM_SHAPE_VOLUME>
158.4

> <PUBCHEM_COORDINATE_TYPE>
2
5
10

$$$$
