71359704
  -OEChem-03112306583D

 29 29  0     1  0  0  0  0  0999 V2000
    0.5920    2.3740    0.0971 O   0  0  0  0  0  0  0  0  0  0  0  0
   -2.2538   -2.0458   -0.5306 O   0  0  0  0  0  0  0  0  0  0  0  0
   -0.2536   -1.0207   -0.0341 N   0  0  0  0  0  0  0  0  0  0  0  0
   -1.4518    1.3360   -0.1107 N   0  0  0  0  0  0  0  0  0  0  0  0
    1.9348   -0.0848    0.5743 C   0  0  2  0  0  0  0  0  0  0  0  0
    0.4251    0.0313    0.7084 C   0  0  1  0  0  0  0  0  0  0  0  0
    2.4114    0.0069   -0.8894 C   0  0  0  0  0  0  0  0  0  0  0  0
   -2.3057    0.2324    0.3036 C   0  0  2  0  0  0  0  0  0  0  0  0
   -0.0938    1.3571    0.1684 C   0  0  0  0  0  0  0  0  0  0  0  0
    2.4177   -1.4048    1.1880 C   0  0  0  0  0  0  0  0  0  0  0  0
   -1.6331   -1.0481   -0.1717 C   0  0  0  0  0  0  0  0  0  0  0  0
    3.9208   -0.1134   -1.0434 C   0  0  0  0  0  0  0  0  0  0  0  0
   -3.7099    0.3798   -0.2598 C   0  0  0  0  0  0  0  0  0  0  0  0
    0.1189   -0.0454    1.7592 H   0  0  0  0  0  0  0  0  0  0  0  0
    2.3993    0.7343    1.1397 H   0  0  0  0  0  0  0  0  0  0  0  0
    2.1109    0.9646   -1.3272 H   0  0  0  0  0  0  0  0  0  0  0  0
    1.9438   -0.7733   -1.5018 H   0  0  0  0  0  0  0  0  0  0  0  0
   -2.3374    0.2214    1.3993 H   0  0  0  0  0  0  0  0  0  0  0  0
    0.2481   -1.8696   -0.2750 H   0  0  0  0  0  0  0  0  0  0  0  0
    2.1900   -2.2699    0.5570 H   0  0  0  0  0  0  0  0  0  0  0  0
    1.9594   -1.5696    2.1695 H   0  0  0  0  0  0  0  0  0  0  0  0
    3.5008   -1.3877    1.3494 H   0  0  0  0  0  0  0  0  0  0  0  0
   -1.8848    2.2040   -0.4121 H   0  0  0  0  0  0  0  0  0  0  0  0
    4.2749   -1.1209   -0.8068 H   0  0  0  0  0  0  0  0  0  0  0  0
    4.4415    0.6023   -0.3995 H   0  0  0  0  0  0  0  0  0  0  0  0
    4.2076    0.0956   -2.0795 H   0  0  0  0  0  0  0  0  0  0  0  0
   -3.7006    0.3759   -1.3558 H   0  0  0  0  0  0  0  0  0  0  0  0
   -4.1639    1.3219    0.0657 H   0  0  0  0  0  0  0  0  0  0  0  0
   -4.3546   -0.4411    0.0712 H   0  0  0  0  0  0  0  0  0  0  0  0
  1  9  2  0  0  0  0
  2 11  2  0  0  0  0
  3  6  1  0  0  0  0
  3 11  1  0  0  0  0
  3 19  1  0  0  0  0
  4  8  1  0  0  0  0
  4  9  1  0  0  0  0
  4 23  1  0  0  0  0
  5  6  1  0  0  0  0
  5  7  1  0  0  0  0
  5 10  1  0  0  0  0
  5 15  1  0  0  0  0
  6  9  1  0  0  0  0
  6 14  1  0  0  0  0
  7 12  1  0  0  0  0
  7 16  1  0  0  0  0
  7 17  1  0  0  0  0
  8 11  1  0  0  0  0
  8 13  1  0  0  0  0
  8 18  1  0  0  0  0
 10 20  1  0  0  0  0
 10 21  1  0  0  0  0
 10 22  1  0  0  0  0
 12 24  1  0  0  0  0
 12 25  1  0  0  0  0
 12 26  1  0  0  0  0
 13 27  1  0  0  0  0
 13 28  1  0  0  0  0
 13 29  1  0  0  0  0
M  END
> <PUBCHEM_COMPOUND_CID>
71359704

> <PUBCHEM_CONFORMER_RMSD>
0.6

> <PUBCHEM_CONFORMER_DIVERSEORDER>
1
5
8
10
4
9
11
6
3
2
7

> <PUBCHEM_MMFF94_PARTIAL_CHARGES>
10
1 -0.57
11 0.57
19 0.37
2 -0.57
23 0.37
3 -0.73
4 -0.73
6 0.36
8 0.36
9 0.57

> <PUBCHEM_EFFECTIVE_ROTOR_COUNT>
2.8

> <PUBCHEM_PHARMACOPHORE_FEATURES>
7
1 1 acceptor
1 10 hydrophobe
1 12 hydrophobe
1 2 acceptor
1 3 donor
1 4 donor
6 3 4 6 8 9 11 rings

> <PUBCHEM_HEAVY_ATOM_COUNT>
13

> <PUBCHEM_ATOM_DEF_STEREO_COUNT>
3

> <PUBCHEM_ATOM_UDEF_STEREO_COUNT>
0

> <PUBCHEM_BOND_DEF_STEREO_COUNT>
0

> <PUBCHEM_BOND_UDEF_STEREO_COUNT>
0

> <PUBCHEM_ISOTOPIC_ATOM_COUNT>
0

> <PUBCHEM_COMPONENT_COUNT>
1

> <PUBCHEM_CACTVS_TAUTO_COUNT>
9

> <PUBCHEM_CONFORMER_ID>
0440DCD800000001

> <PUBCHEM_MMFF94_ENERGY>
37.1293

> <PUBCHEM_FEATURE_SELFOVERLAP>
35.531

> <PUBCHEM_SHAPE_FINGERPRINT>
10465860 71 18342750636409910044
12932764 1 18334572451494670889
14128692 85 18269560592455480836
14911166 2 18412543202377578037
14993402 34 18412262813964296013
15310529 11 17385442085769856613
15775835 57 18113903749202475726
16945 1 18341889667276277153
18619055 16 18187919526199583510
20201158 50 17703517609962337078
20645476 183 18041005046113140327
20645477 70 17765423636796514887
20711983 138 17203615847895238618
20711985 344 18058177119984057288
20871999 31 18411142475771232631
22213442 358 18200036269250565812
228727 97 18188788175262372464
23402539 116 18342455890258574380
23419403 2 16116193462288577633
23463225 33 18263637360118586923
23552423 10 18119243106737598669
23559900 14 18343867706660414518
2748010 2 18194954378057057561
53812653 8 18265057937678821409
53812654 25 18337940204171142138
7364860 26 17914614114157331920
74978 22 18340200899131148511
8030462 33 18187359943627343770

> <PUBCHEM_SHAPE_MULTIPOLES>
245.83
5.46
1.78
0.97
0.58
0.25
0.02
-0.76
-1.44
-0.45
0.07
0.74
-0.18
-0.53

> <PUBCHEM_SHAPE_SELFOVERLAP>
489.092

> <PUBCHEM_SHAPE_VOLUME>
144.9

> <PUBCHEM_COORDINATE_TYPE>
2
5
10

$$$$
