71508173
  -OEChem-03102309132D

137144  0     1  0  0  0  0  0999 V2000
    6.7449   -4.0053    0.0000 O   0  0  0  0  0  0  0  0  0  0  0  0
    8.6841   -4.3135    0.0000 O   0  0  0  0  0  0  0  0  0  0  0  0
    3.8788    3.8544    0.0000 O   0  0  0  0  0  0  0  0  0  0  0  0
    5.3814    4.7160    0.0000 O   0  0  0  0  0  0  0  0  0  0  0  0
    6.0010   -8.0045    0.0000 O   0  0  0  0  0  0  0  0  0  0  0  0
    2.8840    5.5894    0.0000 O   0  0  0  0  0  0  0  0  0  0  0  0
    3.8891    7.3185    0.0000 O   0  0  0  0  0  0  0  0  0  0  0  0
    5.8891    7.3125    0.0000 O   0  0  0  0  0  0  0  0  0  0  0  0
    4.2690   -8.0045    0.0000 O   0  0  0  0  0  0  0  0  0  0  0  0
    7.3865    6.4420    0.0000 O   0  0  0  0  0  0  0  0  0  0  0  0
    6.0010  -10.0045    0.0000 O   0  0  0  0  0  0  0  0  0  0  0  0
    4.3917    8.1830    0.0000 O   0  0  0  0  0  0  0  0  0  0  0  0
    4.2690  -11.0045    0.0000 O   0  0  0  0  0  0  0  0  0  0  0  0
    2.5369  -10.0045    0.0000 O   0  0  0  0  0  0  0  0  0  0  0  0
    6.8943    9.0416    0.0000 O   0  0  0  0  0  0  0  0  0  0  0  0
    2.5369   -7.0045    0.0000 O   0  0  0  0  0  0  0  0  0  0  0  0
    5.8995   10.7766    0.0000 O   0  0  0  0  0  0  0  0  0  0  0  0
    3.8995   10.7826    0.0000 O   0  0  0  0  0  0  0  0  0  0  0  0
    6.9358   -1.5360    0.0000 C   0  0  1  0  0  0  0  0  0  0  0  0
    5.9358   -1.5369    0.0000 C   0  0  2  0  0  0  0  0  0  0  0  0
    7.2413   -2.4820    0.0000 C   0  0  2  0  0  0  0  0  0  0  0  0
    5.4350   -0.6713    0.0000 C   0  0  1  0  0  0  0  0  0  0  0  0
    6.4371   -3.0663    0.0000 C   0  0  2  0  0  0  0  0  0  0  0  0
    5.9343    0.1952    0.0000 C   0  0  2  0  0  0  0  0  0  0  0  0
    5.6318   -2.4834    0.0000 C   0  0  0  0  0  0  0  0  0  0  0  0
    7.4350   -0.6696    0.0000 C   0  0  0  0  0  0  0  0  0  0  0  0
    8.0393   -3.0649    0.0000 C   0  0  1  0  0  0  0  0  0  0  0  0
    6.9343    0.1960    0.0000 C   0  0  0  0  0  0  0  0  0  0  0  0
    5.4266    1.1047    0.0000 C   0  0  2  0  0  0  0  0  0  0  0  0
    7.7331   -4.0045    0.0000 C   0  0  1  0  0  0  0  0  0  0  0  0
    7.9358   -1.5352    0.0000 C   0  0  0  0  0  0  0  0  0  0  0  0
    4.3935   -0.6883    0.0000 C   0  0  0  0  0  0  0  0  0  0  0  0
    4.3850    1.1118    0.0000 C   0  0  0  0  0  0  0  0  0  0  0  0
    5.9899    2.0320    0.0000 C   0  0  0  0  0  0  0  0  0  0  0  0
    3.8650    0.2093    0.0000 C   0  0  0  0  0  0  0  0  0  0  0  0
    8.9909   -2.7575    0.0000 C   0  0  0  0  0  0  0  0  0  0  0  0
    6.4266    1.0979    0.0000 C   0  0  0  0  0  0  0  0  0  0  0  0
    7.7331   -5.0045    0.0000 C   0  0  0  0  0  0  0  0  0  0  0  0
    3.8345    2.0468    0.0000 C   0  0  0  0  0  0  0  0  0  0  0  0
    5.4612    2.9795    0.0000 C   0  0  0  0  0  0  0  0  0  0  0  0
    4.3762    2.9869    0.0000 C   0  0  2  0  0  0  0  0  0  0  0  0
    6.8671   -5.5045    0.0000 C   0  0  0  0  0  0  0  0  0  0  0  0
    6.8671   -6.5045    0.0000 C   0  0  2  0  0  0  0  0  0  0  0  0
    4.3814    4.7189    0.0000 C   0  0  2  0  0  0  0  0  0  0  0  0
    6.0010   -7.0045    0.0000 C   0  0  0  0  0  0  0  0  0  0  0  0
    7.7331   -7.0045    0.0000 C   0  0  0  0  0  0  0  0  0  0  0  0
    3.8839    5.5865    0.0000 C   0  0  1  0  0  0  0  0  0  0  0  0
    4.3865    6.4510    0.0000 C   0  0  2  0  0  0  0  0  0  0  0  0
    5.8839    5.5805    0.0000 C   0  0  1  0  0  0  0  0  0  0  0  0
    5.3865    6.4480    0.0000 C   0  0  1  0  0  0  0  0  0  0  0  0
    5.1350   -8.5045    0.0000 C   0  0  2  0  0  0  0  0  0  0  0  0
    6.8839    5.5775    0.0000 C   0  0  0  0  0  0  0  0  0  0  0  0
    5.1350   -9.5045    0.0000 C   0  0  1  0  0  0  0  0  0  0  0  0
    5.3917    8.1800    0.0000 C   0  0  2  0  0  0  0  0  0  0  0  0
    4.2690  -10.0045    0.0000 C   0  0  2  0  0  0  0  0  0  0  0  0
    3.4030   -8.5045    0.0000 C   0  0  1  0  0  0  0  0  0  0  0  0
    3.4030   -9.5045    0.0000 C   0  0  1  0  0  0  0  0  0  0  0  0
    5.8943    9.0446    0.0000 C   0  0  1  0  0  0  0  0  0  0  0  0
    2.5369   -8.0045    0.0000 C   0  0  0  0  0  0  0  0  0  0  0  0
    5.3969    9.9121    0.0000 C   0  0  1  0  0  0  0  0  0  0  0  0
    3.8943    9.0505    0.0000 C   0  0  2  0  0  0  0  0  0  0  0  0
    4.3969    9.9151    0.0000 C   0  0  2  0  0  0  0  0  0  0  0  0
    2.8943    9.0535    0.0000 C   0  0  0  0  0  0  0  0  0  0  0  0
    5.0906   -1.6276    0.0000 H   0  0  0  0  0  0  0  0  0  0  0  0
    7.9301   -1.9839    0.0000 H   0  0  0  0  0  0  0  0  0  0  0  0
    5.0163   -1.4110    0.0000 H   0  0  0  0  0  0  0  0  0  0  0  0
    5.7505   -3.5674    0.0000 H   0  0  0  0  0  0  0  0  0  0  0  0
    6.3599   -0.5406    0.0000 H   0  0  0  0  0  0  0  0  0  0  0  0
    5.0647   -2.2328    0.0000 H   0  0  0  0  0  0  0  0  0  0  0  0
    5.3231   -3.0210    0.0000 H   0  0  0  0  0  0  0  0  0  0  0  0
    7.9103   -1.0677    0.0000 H   0  0  0  0  0  0  0  0  0  0  0  0
    7.9096   -0.2706    0.0000 H   0  0  0  0  0  0  0  0  0  0  0  0
    8.1376   -2.4528    0.0000 H   0  0  0  0  0  0  0  0  0  0  0  0
    7.5167    0.4086    0.0000 H   0  0  0  0  0  0  0  0  0  0  0  0
    6.8261    0.8065    0.0000 H   0  0  0  0  0  0  0  0  0  0  0  0
    7.9363   -2.1552    0.0000 H   0  0  0  0  0  0  0  0  0  0  0  0
    8.5558   -1.5346    0.0000 H   0  0  0  0  0  0  0  0  0  0  0  0
    7.9352   -0.9152    0.0000 H   0  0  0  0  0  0  0  0  0  0  0  0
    3.8133   -0.9068    0.0000 H   0  0  0  0  0  0  0  0  0  0  0  0
    4.5096   -1.2973    0.0000 H   0  0  0  0  0  0  0  0  0  0  0  0
    6.4569    1.6242    0.0000 H   0  0  0  0  0  0  0  0  0  0  0  0
    6.4716    2.4224    0.0000 H   0  0  0  0  0  0  0  0  0  0  0  0
    3.2450    0.2064    0.0000 H   0  0  0  0  0  0  0  0  0  0  0  0
    9.1814   -3.3475    0.0000 H   0  0  0  0  0  0  0  0  0  0  0  0
    9.5808   -2.5670    0.0000 H   0  0  0  0  0  0  0  0  0  0  0  0
    8.8003   -2.1676    0.0000 H   0  0  0  0  0  0  0  0  0  0  0  0
    6.4224    0.4779    0.0000 H   0  0  0  0  0  0  0  0  0  0  0  0
    7.0466    1.0936    0.0000 H   0  0  0  0  0  0  0  0  0  0  0  0
    6.4309    1.7179    0.0000 H   0  0  0  0  0  0  0  0  0  0  0  0
    7.9451   -5.5871    0.0000 H   0  0  0  0  0  0  0  0  0  0  0  0
    8.3437   -4.8968    0.0000 H   0  0  0  0  0  0  0  0  0  0  0  0
    3.3582    2.4437    0.0000 H   0  0  0  0  0  0  0  0  0  0  0  0
    3.3620    1.6454    0.0000 H   0  0  0  0  0  0  0  0  0  0  0  0
    6.0462    3.1845    0.0000 H   0  0  0  0  0  0  0  0  0  0  0  0
    5.3592    3.5910    0.0000 H   0  0  0  0  0  0  0  0  0  0  0  0
    3.7562    2.9876    0.0000 H   0  0  0  0  0  0  0  0  0  0  0  0
    8.8130   -4.9199    0.0000 H   0  0  0  0  0  0  0  0  0  0  0  0
    6.6550   -4.9219    0.0000 H   0  0  0  0  0  0  0  0  0  0  0  0
    6.2565   -5.6121    0.0000 H   0  0  0  0  0  0  0  0  0  0  0  0
    6.8671   -7.1245    0.0000 H   0  0  0  0  0  0  0  0  0  0  0  0
    3.7614    4.7208    0.0000 H   0  0  0  0  0  0  0  0  0  0  0  0
    5.7890   -6.4219    0.0000 H   0  0  0  0  0  0  0  0  0  0  0  0
    5.3905   -7.1121    0.0000 H   0  0  0  0  0  0  0  0  0  0  0  0
    7.4231   -7.5414    0.0000 H   0  0  0  0  0  0  0  0  0  0  0  0
    8.2700   -7.3145    0.0000 H   0  0  0  0  0  0  0  0  0  0  0  0
    8.0431   -6.4675    0.0000 H   0  0  0  0  0  0  0  0  0  0  0  0
    3.5756    6.1243    0.0000 H   0  0  0  0  0  0  0  0  0  0  0  0
    4.6981    6.9870    0.0000 H   0  0  0  0  0  0  0  0  0  0  0  0
    6.1923    5.0426    0.0000 H   0  0  0  0  0  0  0  0  0  0  0  0
    6.0065    6.4461    0.0000 H   0  0  0  0  0  0  0  0  0  0  0  0
    2.5724    5.0534    0.0000 H   0  0  0  0  0  0  0  0  0  0  0  0
    5.1350   -7.8845    0.0000 H   0  0  0  0  0  0  0  0  0  0  0  0
    6.7744    4.9672    0.0000 H   0  0  0  0  0  0  0  0  0  0  0  0
    7.4659    5.3637    0.0000 H   0  0  0  0  0  0  0  0  0  0  0  0
    3.2691    7.3204    0.0000 H   0  0  0  0  0  0  0  0  0  0  0  0
    5.1350  -10.1245    0.0000 H   0  0  0  0  0  0  0  0  0  0  0  0
    6.0117    8.1782    0.0000 H   0  0  0  0  0  0  0  0  0  0  0  0
    3.7320  -10.3145    0.0000 H   0  0  0  0  0  0  0  0  0  0  0  0
    3.4030   -7.8845    0.0000 H   0  0  0  0  0  0  0  0  0  0  0  0
    3.4030  -10.1245    0.0000 H   0  0  0  0  0  0  0  0  0  0  0  0
    8.0065    6.4402    0.0000 H   0  0  0  0  0  0  0  0  0  0  0  0
    6.2059    9.5806    0.0000 H   0  0  0  0  0  0  0  0  0  0  0  0
    6.5380   -9.6945    0.0000 H   0  0  0  0  0  0  0  0  0  0  0  0
    1.9264   -7.8968    0.0000 H   0  0  0  0  0  0  0  0  0  0  0  0
    2.3249   -8.5871    0.0000 H   0  0  0  0  0  0  0  0  0  0  0  0
    5.0885   10.4499    0.0000 H   0  0  0  0  0  0  0  0  0  0  0  0
    3.5827    8.5145    0.0000 H   0  0  0  0  0  0  0  0  0  0  0  0
    3.7320  -11.3145    0.0000 H   0  0  0  0  0  0  0  0  0  0  0  0
    3.7769    9.9169    0.0000 H   0  0  0  0  0  0  0  0  0  0  0  0
    2.0000   -9.6945    0.0000 H   0  0  0  0  0  0  0  0  0  0  0  0
    7.2059    9.5776    0.0000 H   0  0  0  0  0  0  0  0  0  0  0  0
    2.8962    9.6735    0.0000 H   0  0  0  0  0  0  0  0  0  0  0  0
    2.2743    9.0554    0.0000 H   0  0  0  0  0  0  0  0  0  0  0  0
    2.8925    8.4335    0.0000 H   0  0  0  0  0  0  0  0  0  0  0  0
    2.0000   -6.6945    0.0000 H   0  0  0  0  0  0  0  0  0  0  0  0
    5.5911   11.3145    0.0000 H   0  0  0  0  0  0  0  0  0  0  0  0
    3.2795   10.7844    0.0000 H   0  0  0  0  0  0  0  0  0  0  0  0
  1 23  1  0  0  0  0
  1 30  1  0  0  0  0
 30  2  1  6  0  0  0
  2 97  1  0  0  0  0
 41  3  1  1  0  0  0
 44  3  1  1  0  0  0
  4 44  1  0  0  0  0
  4 49  1  0  0  0  0
  5 45  1  0  0  0  0
 51  5  1  1  0  0  0
 47  6  1  6  0  0  0
  6111  1  0  0  0  0
 48  7  1  1  0  0  0
  7115  1  0  0  0  0
 50  8  1  6  0  0  0
 54  8  1  6  0  0  0
  9 51  1  0  0  0  0
  9 56  1  0  0  0  0
 10 52  1  0  0  0  0
 10121  1  0  0  0  0
 53 11  1  6  0  0  0
 11123  1  0  0  0  0
 12 54  1  0  0  0  0
 12 61  1  0  0  0  0
 55 13  1  1  0  0  0
 13128  1  0  0  0  0
 57 14  1  6  0  0  0
 14130  1  0  0  0  0
 58 15  1  1  0  0  0
 15131  1  0  0  0  0
 16 59  1  0  0  0  0
 16135  1  0  0  0  0
 60 17  1  1  0  0  0
 17136  1  0  0  0  0
 62 18  1  6  0  0  0
 18137  1  0  0  0  0
 19 20  1  0  0  0  0
 19 21  1  0  0  0  0
 19 26  1  0  0  0  0
 19 31  1  1  0  0  0
 20 22  1  0  0  0  0
 20 25  1  0  0  0  0
 20 64  1  6  0  0  0
 21 23  1  0  0  0  0
 21 27  1  0  0  0  0
 21 65  1  6  0  0  0
 22 24  1  0  0  0  0
 22 32  1  0  0  0  0
 22 66  1  1  0  0  0
 23 25  1  0  0  0  0
 23 67  1  6  0  0  0
 24 28  1  0  0  0  0
 24 29  1  0  0  0  0
 24 68  1  6  0  0  0
 25 69  1  0  0  0  0
 25 70  1  0  0  0  0
 26 28  1  0  0  0  0
 26 71  1  0  0  0  0
 26 72  1  0  0  0  0
 27 30  1  0  0  0  0
 27 36  1  6  0  0  0
 27 73  1  0  0  0  0
 28 74  1  0  0  0  0
 28 75  1  0  0  0  0
 29 33  1  0  0  0  0
 29 34  1  0  0  0  0
 29 37  1  1  0  0  0
 30 38  1  0  0  0  0
 31 76  1  0  0  0  0
 31 77  1  0  0  0  0
 31 78  1  0  0  0  0
 32 35  1  0  0  0  0
 32 79  1  0  0  0  0
 32 80  1  0  0  0  0
 33 35  2  0  0  0  0
 33 39  1  0  0  0  0
 34 40  1  0  0  0  0
 34 81  1  0  0  0  0
 34 82  1  0  0  0  0
 35 83  1  0  0  0  0
 36 84  1  0  0  0  0
 36 85  1  0  0  0  0
 36 86  1  0  0  0  0
 37 87  1  0  0  0  0
 37 88  1  0  0  0  0
 37 89  1  0  0  0  0
 38 42  1  0  0  0  0
 38 90  1  0  0  0  0
 38 91  1  0  0  0  0
 39 41  1  0  0  0  0
 39 92  1  0  0  0  0
 39 93  1  0  0  0  0
 40 41  1  0  0  0  0
 40 94  1  0  0  0  0
 40 95  1  0  0  0  0
 41 96  1  0  0  0  0
 42 43  1  0  0  0  0
 42 98  1  0  0  0  0
 42 99  1  0  0  0  0
 43 45  1  0  0  0  0
 43 46  1  1  0  0  0
 43100  1  0  0  0  0
 44 47  1  0  0  0  0
 44101  1  0  0  0  0
 45102  1  0  0  0  0
 45103  1  0  0  0  0
 46104  1  0  0  0  0
 46105  1  0  0  0  0
 46106  1  0  0  0  0
 47 48  1  0  0  0  0
 47107  1  0  0  0  0
 48 50  1  0  0  0  0
 48108  1  0  0  0  0
 49 50  1  0  0  0  0
 49 52  1  1  0  0  0
 49109  1  0  0  0  0
 50110  1  0  0  0  0
 51 53  1  0  0  0  0
 51112  1  0  0  0  0
 52113  1  0  0  0  0
 52114  1  0  0  0  0
 53 55  1  0  0  0  0
 53116  1  0  0  0  0
 54 58  1  0  0  0  0
 54117  1  0  0  0  0
 55 57  1  0  0  0  0
 55118  1  0  0  0  0
 56 57  1  0  0  0  0
 56 59  1  1  0  0  0
 56119  1  0  0  0  0
 57120  1  0  0  0  0
 58 60  1  0  0  0  0
 58122  1  0  0  0  0
 59124  1  0  0  0  0
 59125  1  0  0  0  0
 60 62  1  0  0  0  0
 60126  1  0  0  0  0
 61 62  1  0  0  0  0
 61 63  1  1  0  0  0
 61127  1  0  0  0  0
 62129  1  0  0  0  0
 63132  1  0  0  0  0
 63133  1  0  0  0  0
 63134  1  0  0  0  0
M  END
> <PUBCHEM_COMPOUND_CID>
71508173

> <PUBCHEM_COMPOUND_CANONICALIZED>
1

> <PUBCHEM_CACTVS_COMPLEXITY>
1610

> <PUBCHEM_CACTVS_HBOND_ACCEPTOR>
18

> <PUBCHEM_CACTVS_HBOND_DONOR>
11

> <PUBCHEM_CACTVS_ROTATABLE_BOND>
12

> <PUBCHEM_CACTVS_SUBSKEYS>
AAADcfB8PgAAAAAAAAAAAAAAAAAAAaIAAAA0aJECAAASAGCAAAAAGgAACAAADxSwgAMCCAAABgCAAiBCAAAAAAAgAAAACAAAAAgREAIAAQAiQAAFwAAPAAPA4PwPgAAAAAAAAADAAAQAACAAAYAADAAAAA==

> <PUBCHEM_IUPAC_OPENEYE_NAME>
(2S,3R,4R,5R,6S)-2-[(2R,3S,4R,5R,6R)-4,5-dihydroxy-2-(hydroxymethyl)-6-[[(1S,2S,4S,6R,7S,8R,9S,12S,13R,16S)-6-hydroxy-7,9,13-trimethyl-6-[(3R)-3-methyl-4-[(2R,3R,4S,5S,6R)-3,4,5-trihydroxy-6-(hydroxymethyl)tetrahydropyran-2-yl]oxy-butyl]-5-oxapentacyclo[10.8.0.02,9.04,8.013,18]icos-18-en-16-yl]oxy]tetrahydropyran-3-yl]oxy-6-methyl-tetrahydropyran-3,4,5-triol

> <PUBCHEM_IUPAC_CAS_NAME>
(2S,3R,4R,5R,6S)-2-[[(2R,3S,4R,5R,6R)-4,5-dihydroxy-2-(hydroxymethyl)-6-[[(1S,2S,4S,6R,7S,8R,9S,12S,13R,16S)-6-hydroxy-7,9,13-trimethyl-6-[(3R)-3-methyl-4-[[(2R,3R,4S,5S,6R)-3,4,5-trihydroxy-6-(hydroxymethyl)-2-oxanyl]oxy]butyl]-5-oxapentacyclo[10.8.0.02,9.04,8.013,18]eicos-18-en-16-yl]oxy]-3-oxanyl]oxy]-6-methyloxane-3,4,5-triol

> <PUBCHEM_IUPAC_NAME_MARKUP>
(2<I>S</I>,3<I>R</I>,4<I>R</I>,5<I>R</I>,6<I>S</I>)-2-[(2<I>R</I>,3<I>S</I>,4<I>R</I>,5<I>R</I>,6<I>R</I>)-4,5-dihydroxy-2-(hydroxymethyl)-6-[[(1<I>S</I>,2<I>S</I>,4<I>S</I>,6<I>R</I>,7<I>S</I>,8<I>R</I>,9<I>S</I>,12<I>S</I>,13<I>R</I>,16<I>S</I>)-6-hydroxy-7,9,13-trimethyl-6-[(3<I>R</I>)-3-methyl-4-[(2<I>R</I>,3<I>R</I>,4<I>S</I>,5<I>S</I>,6<I>R</I>)-3,4,5-trihydroxy-6-(hydroxymethyl)oxan-2-yl]oxybutyl]-5-oxapentacyclo[10.8.0.0<SUP>2,9</SUP>.0<SUP>4,8</SUP>.0<SUP>13,18</SUP>]icos-18-en-16-yl]oxy]oxan-3-yl]oxy-6-methyloxane-3,4,5-triol

> <PUBCHEM_IUPAC_NAME>
(2S,3R,4R,5R,6S)-2-[(2R,3S,4R,5R,6R)-4,5-dihydroxy-2-(hydroxymethyl)-6-[[(1S,2S,4S,6R,7S,8R,9S,12S,13R,16S)-6-hydroxy-7,9,13-trimethyl-6-[(3R)-3-methyl-4-[(2R,3R,4S,5S,6R)-3,4,5-trihydroxy-6-(hydroxymethyl)oxan-2-yl]oxybutyl]-5-oxapentacyclo[10.8.0.02,9.04,8.013,18]icos-18-en-16-yl]oxy]oxan-3-yl]oxy-6-methyloxane-3,4,5-triol

> <PUBCHEM_IUPAC_SYSTEMATIC_NAME>
(2S,3R,4R,5R,6S)-2-[(2R,3S,4R,5R,6R)-2-(hydroxymethyl)-6-[[(1S,2S,4S,6R,7S,8R,9S,12S,13R,16S)-6-[(3R)-4-[(2R,3R,4S,5S,6R)-6-(hydroxymethyl)-3,4,5-tris(oxidanyl)oxan-2-yl]oxy-3-methyl-butyl]-7,9,13-trimethyl-6-oxidanyl-5-oxapentacyclo[10.8.0.02,9.04,8.013,18]icos-18-en-16-yl]oxy]-4,5-bis(oxidanyl)oxan-3-yl]oxy-6-methyl-oxane-3,4,5-triol

> <PUBCHEM_IUPAC_TRADITIONAL_NAME>
(2S,3R,4R,5R,6S)-2-[(2R,3S,4R,5R,6R)-4,5-dihydroxy-6-[[(1S,2S,4S,6R,7S,8R,9S,12S,13R,16S)-6-hydroxy-7,9,13-trimethyl-6-[(3R)-3-methyl-4-[(2R,3R,4S,5S,6R)-3,4,5-trihydroxy-6-methylol-tetrahydropyran-2-yl]oxy-butyl]-5-oxapentacyclo[10.8.0.02,9.04,8.013,18]eicos-18-en-16-yl]oxy]-2-methylol-tetrahydropyran-3-yl]oxy-6-methyl-tetrahydropyran-3,4,5-triol

> <PUBCHEM_IUPAC_INCHI>
InChI=1S/C45H74O18/c1-19(18-57-40-36(53)34(51)32(49)28(16-46)60-40)8-13-45(56)20(2)30-27(63-45)15-26-24-7-6-22-14-23(9-11-43(22,4)25(24)10-12-44(26,30)5)59-42-38(55)35(52)39(29(17-47)61-42)62-41-37(54)33(50)31(48)21(3)58-41/h6,19-21,23-42,46-56H,7-18H2,1-5H3/t19-,20+,21+,23+,24-,25+,26+,27+,28-,29-,30+,31+,32-,33-,34+,35-,36-,37-,38-,39-,40-,41+,42-,43+,44+,45-/m1/s1

> <PUBCHEM_IUPAC_INCHIKEY>
RKFMVZQLJBGJKK-YGXMXTOKSA-N

> <PUBCHEM_XLOGP3_AA>
-0.2

> <PUBCHEM_EXACT_MASS>
902.48751551

> <PUBCHEM_MOLECULAR_FORMULA>
C45H74O18

> <PUBCHEM_MOLECULAR_WEIGHT>
903.1

> <PUBCHEM_OPENEYE_CAN_SMILES>
CC1C2C(CC3C2(CCC4C3CC=C5C4(CCC(C5)OC6C(C(C(C(O6)CO)OC7C(C(C(C(O7)C)O)O)O)O)O)C)C)OC1(CCC(C)COC8C(C(C(C(O8)CO)O)O)O)O

> <PUBCHEM_OPENEYE_ISO_SMILES>
C[C@H]1[C@H]2[C@H](C[C@@H]3[C@@]2(CC[C@H]4[C@H]3CC=C5[C@@]4(CC[C@@H](C5)O[C@H]6[C@@H]([C@H]([C@@H]([C@H](O6)CO)O[C@H]7[C@@H]([C@@H]([C@H]([C@@H](O7)C)O)O)O)O)O)C)C)O[C@@]1(CC[C@@H](C)CO[C@H]8[C@@H]([C@H]([C@@H]([C@H](O8)CO)O)O)O)O

> <PUBCHEM_CACTVS_TPSA>
287

> <PUBCHEM_MONOISOTOPIC_WEIGHT>
902.48751551

> <PUBCHEM_TOTAL_CHARGE>
0

> <PUBCHEM_HEAVY_ATOM_COUNT>
63

> <PUBCHEM_ATOM_DEF_STEREO_COUNT>
26

> <PUBCHEM_ATOM_UDEF_STEREO_COUNT>
0

> <PUBCHEM_BOND_DEF_STEREO_COUNT>
0

> <PUBCHEM_BOND_UDEF_STEREO_COUNT>
0

> <PUBCHEM_ISOTOPIC_ATOM_COUNT>
0

> <PUBCHEM_COMPONENT_COUNT>
1

> <PUBCHEM_CACTVS_TAUTO_COUNT>
-1

> <PUBCHEM_COORDINATE_TYPE>
1
5
255

> <PUBCHEM_BONDANNOTATIONS>
53  11  6
55  13  5
57  14  6
58  15  5
60  17  5
62  18  6
19  31  5
30  2  6
20  64  6
21  65  6
22  66  5
23  67  6
24  68  6
27  36  6
29  37  5
41  3  5
44  3  5
43  46  5
49  52  5
51  5  5
56  59  5
47  6  6
61  63  5
48  7  5
50  8  6
54  8  6

$$$$
