71581001
  -OEChem-03102307532D

156165  0     1  0  0  0  0  0999 V2000
   10.8882    1.9270    0.0000 O   0  0  0  0  0  0  0  0  0  0  0  0
   10.7717    3.0892    0.0000 O   0  0  0  0  0  0  0  0  0  0  0  0
    9.4651   -6.3170    0.0000 O   0  0  0  0  0  0  0  0  0  0  0  0
    9.3400    5.3997    0.0000 O   0  0  0  0  0  0  0  0  0  0  0  0
    7.7331   -6.3170    0.0000 O   0  0  0  0  0  0  0  0  0  0  0  0
    8.3177    6.7979    0.0000 O   0  0  0  0  0  0  0  0  0  0  0  0
    9.4651   -8.3170    0.0000 O   0  0  0  0  0  0  0  0  0  0  0  0
    7.7331   -9.3170    0.0000 O   0  0  0  0  0  0  0  0  0  0  0  0
   10.9545    6.5801    0.0000 O   0  0  0  0  0  0  0  0  0  0  0  0
    6.0010   -8.3170    0.0000 O   0  0  0  0  0  0  0  0  0  0  0  0
   10.7395    8.5685    0.0000 O   0  0  0  0  0  0  0  0  0  0  0  0
    8.9099    9.3766    0.0000 O   0  0  0  0  0  0  0  0  0  0  0  0
   10.3312   -6.8170    0.0000 O   0  0  0  0  0  0  0  0  0  0  0  0
    6.0010   -5.3170    0.0000 O   0  0  0  0  0  0  0  0  0  0  0  0
    6.4882    7.6060    0.0000 O   0  0  0  0  0  0  0  0  0  0  0  0
    5.1350   -6.8170    0.0000 O   0  0  0  0  0  0  0  0  0  0  0  0
   11.1972   -9.3170    0.0000 O   0  0  0  0  0  0  0  0  0  0  0  0
   12.9292   -8.3170    0.0000 O   0  0  0  0  0  0  0  0  0  0  0  0
    4.2690   -9.3170    0.0000 O   0  0  0  0  0  0  0  0  0  0  0  0
   12.9292   -6.3170    0.0000 O   0  0  0  0  0  0  0  0  0  0  0  0
    2.5369   -8.3170    0.0000 O   0  0  0  0  0  0  0  0  0  0  0  0
    2.5369   -6.3170    0.0000 O   0  0  0  0  0  0  0  0  0  0  0  0
    3.4030   -4.8170    0.0000 O   0  0  0  0  0  0  0  0  0  0  0  0
    9.4944   -0.1202    0.0000 C   0  0  1  0  0  0  0  0  0  0  0  0
   10.3623   -0.6168    0.0000 C   0  0  2  0  0  0  0  0  0  0  0  0
    9.6999    0.8525    0.0000 C   0  0  2  0  0  0  0  0  0  0  0  0
   10.3662   -1.6168    0.0000 C   0  0  1  0  0  0  0  0  0  0  0  0
   10.6882    0.9593    0.0000 C   0  0  2  0  0  0  0  0  0  0  0  0
   11.0968    0.0531    0.0000 C   0  0  0  0  0  0  0  0  0  0  0  0
    9.5021   -2.1202    0.0000 C   0  0  2  0  0  0  0  0  0  0  0  0
    9.2976    1.7551    0.0000 C   0  0  1  0  0  0  0  0  0  0  0  0
    8.6303   -0.6235    0.0000 C   0  0  0  0  0  0  0  0  0  0  0  0
   10.0305    2.4178    0.0000 C   0  0  1  0  0  0  0  0  0  0  0  0
    8.6342   -1.6235    0.0000 C   0  0  0  0  0  0  0  0  0  0  0  0
    9.4901   -3.1617    0.0000 C   0  0  2  0  0  0  0  0  0  0  0  0
    8.6264    0.3765    0.0000 C   0  0  0  0  0  0  0  0  0  0  0  0
   11.2781   -2.1202    0.0000 C   0  0  0  0  0  0  0  0  0  0  0  0
   10.3901   -3.6860    0.0000 C   0  0  0  0  0  0  0  0  0  0  0  0
    9.1630    2.9153    0.0000 C   0  0  0  0  0  0  0  0  0  0  0  0
    8.5402   -3.6860    0.0000 C   0  0  0  0  0  0  0  0  0  0  0  0
    8.3192    1.9617    0.0000 C   0  0  0  0  0  0  0  0  0  0  0  0
   11.2902   -3.1617    0.0000 C   0  0  0  0  0  0  0  0  0  0  0  0
   10.3622    4.0015    0.0000 C   0  0  1  0  0  0  0  0  0  0  0  0
    8.6260   -2.6584    0.0000 C   0  0  0  0  0  0  0  0  0  0  0  0
    9.3680    3.8940    0.0000 C   0  0  0  0  0  0  0  0  0  0  0  0
   10.4027   -4.7709    0.0000 C   0  0  0  0  0  0  0  0  0  0  0  0
    8.5276   -4.7709    0.0000 C   0  0  0  0  0  0  0  0  0  0  0  0
    9.4651   -5.3170    0.0000 C   0  0  2  0  0  0  0  0  0  0  0  0
   10.2547    4.9957    0.0000 C   0  0  0  0  0  0  0  0  0  0  0  0
   11.2745    4.4110    0.0000 C   0  0  0  0  0  0  0  0  0  0  0  0
    8.5991   -6.8170    0.0000 C   0  0  2  0  0  0  0  0  0  0  0  0
    9.2324    6.3939    0.0000 C   0  0  2  0  0  0  0  0  0  0  0  0
    8.5991   -7.8170    0.0000 C   0  0  1  0  0  0  0  0  0  0  0  0
    7.7331   -8.3170    0.0000 C   0  0  2  0  0  0  0  0  0  0  0  0
   10.0397    6.9841    0.0000 C   0  0  1  0  0  0  0  0  0  0  0  0
    6.8671   -6.8170    0.0000 C   0  0  1  0  0  0  0  0  0  0  0  0
    6.8671   -7.8170    0.0000 C   0  0  1  0  0  0  0  0  0  0  0  0
    9.9322    7.9783    0.0000 C   0  0  2  0  0  0  0  0  0  0  0  0
    8.2102    7.7921    0.0000 C   0  0  1  0  0  0  0  0  0  0  0  0
    9.0174    8.3824    0.0000 C   0  0  1  0  0  0  0  0  0  0  0  0
    6.0010   -6.3170    0.0000 C   0  0  0  0  0  0  0  0  0  0  0  0
   10.3312   -7.8170    0.0000 C   0  0  2  0  0  0  0  0  0  0  0  0
    7.2954    8.1962    0.0000 C   0  0  0  0  0  0  0  0  0  0  0  0
   11.1972   -8.3170    0.0000 C   0  0  1  0  0  0  0  0  0  0  0  0
    5.1350   -7.8170    0.0000 C   0  0  2  0  0  0  0  0  0  0  0  0
   12.0632   -7.8170    0.0000 C   0  0  1  0  0  0  0  0  0  0  0  0
   11.1972   -6.3170    0.0000 C   0  0  2  0  0  0  0  0  0  0  0  0
    4.2690   -8.3170    0.0000 C   0  0  1  0  0  0  0  0  0  0  0  0
   12.0632   -6.8170    0.0000 C   0  0  2  0  0  0  0  0  0  0  0  0
    3.4030   -7.8170    0.0000 C   0  0  2  0  0  0  0  0  0  0  0  0
    4.2690   -6.3170    0.0000 C   0  0  1  0  0  0  0  0  0  0  0  0
    3.4030   -6.8170    0.0000 C   0  0  1  0  0  0  0  0  0  0  0  0
   11.1972   -5.3170    0.0000 C   0  0  0  0  0  0  0  0  0  0  0  0
    4.2690   -5.3170    0.0000 C   0  0  0  0  0  0  0  0  0  0  0  0
   11.1406   -0.9585    0.0000 H   0  0  0  0  0  0  0  0  0  0  0  0
    8.8546    0.7629    0.0000 H   0  0  0  0  0  0  0  0  0  0  0  0
   11.0974   -1.1833    0.0000 H   0  0  0  0  0  0  0  0  0  0  0  0
   11.5330    1.0525    0.0000 H   0  0  0  0  0  0  0  0  0  0  0  0
   11.4642   -0.4463    0.0000 H   0  0  0  0  0  0  0  0  0  0  0  0
   11.6321    0.3659    0.0000 H   0  0  0  0  0  0  0  0  0  0  0  0
   10.2366   -2.5480    0.0000 H   0  0  0  0  0  0  0  0  0  0  0  0
    8.9078    1.2729    0.0000 H   0  0  0  0  0  0  0  0  0  0  0  0
    8.4160   -0.0417    0.0000 H   0  0  0  0  0  0  0  0  0  0  0  0
    8.0201   -0.7335    0.0000 H   0  0  0  0  0  0  0  0  0  0  0  0
    8.0232   -1.5182    0.0000 H   0  0  0  0  0  0  0  0  0  0  0  0
    8.4244   -2.2069    0.0000 H   0  0  0  0  0  0  0  0  0  0  0  0
    8.9344    0.9146    0.0000 H   0  0  0  0  0  0  0  0  0  0  0  0
    8.0883    0.6844    0.0000 H   0  0  0  0  0  0  0  0  0  0  0  0
    8.3185   -0.1616    0.0000 H   0  0  0  0  0  0  0  0  0  0  0  0
   11.8902   -2.2192    0.0000 H   0  0  0  0  0  0  0  0  0  0  0  0
   11.4804   -1.5341    0.0000 H   0  0  0  0  0  0  0  0  0  0  0  0
    8.5728    3.1051    0.0000 H   0  0  0  0  0  0  0  0  0  0  0  0
    8.9125    2.3481    0.0000 H   0  0  0  0  0  0  0  0  0  0  0  0
    8.3379   -3.0999    0.0000 H   0  0  0  0  0  0  0  0  0  0  0  0
    7.9281   -3.7850    0.0000 H   0  0  0  0  0  0  0  0  0  0  0  0
    8.4473    2.5684    0.0000 H   0  0  0  0  0  0  0  0  0  0  0  0
    7.7125    2.0899    0.0000 H   0  0  0  0  0  0  0  0  0  0  0  0
    8.1910    1.3551    0.0000 H   0  0  0  0  0  0  0  0  0  0  0  0
   11.8295   -3.4676    0.0000 H   0  0  0  0  0  0  0  0  0  0  0  0
    8.9380   -2.1226    0.0000 H   0  0  0  0  0  0  0  0  0  0  0  0
    8.0902   -2.3463    0.0000 H   0  0  0  0  0  0  0  0  0  0  0  0
    8.3139   -3.1941    0.0000 H   0  0  0  0  0  0  0  0  0  0  0  0
    9.3662    4.5140    0.0000 H   0  0  0  0  0  0  0  0  0  0  0  0
    8.7512    3.9570    0.0000 H   0  0  0  0  0  0  0  0  0  0  0  0
   10.6185   -5.3522    0.0000 H   0  0  0  0  0  0  0  0  0  0  0  0
   11.0123   -4.6578    0.0000 H   0  0  0  0  0  0  0  0  0  0  0  0
    7.9180   -4.6578    0.0000 H   0  0  0  0  0  0  0  0  0  0  0  0
    8.3118   -5.3522    0.0000 H   0  0  0  0  0  0  0  0  0  0  0  0
   10.0027   -5.6260    0.0000 H   0  0  0  0  0  0  0  0  0  0  0  0
   10.8733    4.9543    0.0000 H   0  0  0  0  0  0  0  0  0  0  0  0
   10.4029    5.5978    0.0000 H   0  0  0  0  0  0  0  0  0  0  0  0
   11.5284    3.8453    0.0000 H   0  0  0  0  0  0  0  0  0  0  0  0
   11.8402    4.6649    0.0000 H   0  0  0  0  0  0  0  0  0  0  0  0
   11.0207    4.9766    0.0000 H   0  0  0  0  0  0  0  0  0  0  0  0
    8.5991   -6.1970    0.0000 H   0  0  0  0  0  0  0  0  0  0  0  0
    8.7320    6.0280    0.0000 H   0  0  0  0  0  0  0  0  0  0  0  0
    8.5991   -8.4370    0.0000 H   0  0  0  0  0  0  0  0  0  0  0  0
    7.1962   -8.6270    0.0000 H   0  0  0  0  0  0  0  0  0  0  0  0
   10.5402    7.3501    0.0000 H   0  0  0  0  0  0  0  0  0  0  0  0
    6.8671   -6.1970    0.0000 H   0  0  0  0  0  0  0  0  0  0  0  0
    6.8671   -8.4370    0.0000 H   0  0  0  0  0  0  0  0  0  0  0  0
   10.4994    7.7279    0.0000 H   0  0  0  0  0  0  0  0  0  0  0  0
    7.7097    7.4262    0.0000 H   0  0  0  0  0  0  0  0  0  0  0  0
    9.5179    8.7483    0.0000 H   0  0  0  0  0  0  0  0  0  0  0  0
    5.3905   -6.2094    0.0000 H   0  0  0  0  0  0  0  0  0  0  0  0
    5.7890   -6.8996    0.0000 H   0  0  0  0  0  0  0  0  0  0  0  0
   10.3312   -8.4370    0.0000 H   0  0  0  0  0  0  0  0  0  0  0  0
    7.1962   -9.6270    0.0000 H   0  0  0  0  0  0  0  0  0  0  0  0
   11.4550    6.9461    0.0000 H   0  0  0  0  0  0  0  0  0  0  0  0
    7.6406    8.7112    0.0000 H   0  0  0  0  0  0  0  0  0  0  0  0
    6.8482    8.6255    0.0000 H   0  0  0  0  0  0  0  0  0  0  0  0
   10.6728    9.1850    0.0000 H   0  0  0  0  0  0  0  0  0  0  0  0
   11.7341   -8.6270    0.0000 H   0  0  0  0  0  0  0  0  0  0  0  0
    5.1350   -8.4370    0.0000 H   0  0  0  0  0  0  0  0  0  0  0  0
    8.3428    9.6270    0.0000 H   0  0  0  0  0  0  0  0  0  0  0  0
    5.4641   -5.0070    0.0000 H   0  0  0  0  0  0  0  0  0  0  0  0
   12.6002   -7.5070    0.0000 H   0  0  0  0  0  0  0  0  0  0  0  0
   10.6603   -6.0070    0.0000 H   0  0  0  0  0  0  0  0  0  0  0  0
    3.7320   -8.6270    0.0000 H   0  0  0  0  0  0  0  0  0  0  0  0
   12.0632   -6.1970    0.0000 H   0  0  0  0  0  0  0  0  0  0  0  0
    5.9210    7.8564    0.0000 H   0  0  0  0  0  0  0  0  0  0  0  0
    2.8660   -7.5070    0.0000 H   0  0  0  0  0  0  0  0  0  0  0  0
   11.7341   -9.6270    0.0000 H   0  0  0  0  0  0  0  0  0  0  0  0
    4.8059   -6.0070    0.0000 H   0  0  0  0  0  0  0  0  0  0  0  0
    3.4030   -6.1970    0.0000 H   0  0  0  0  0  0  0  0  0  0  0  0
   11.8172   -5.3170    0.0000 H   0  0  0  0  0  0  0  0  0  0  0  0
   11.1972   -4.6970    0.0000 H   0  0  0  0  0  0  0  0  0  0  0  0
   10.5772   -5.3170    0.0000 H   0  0  0  0  0  0  0  0  0  0  0  0
   13.4662   -8.0070    0.0000 H   0  0  0  0  0  0  0  0  0  0  0  0
    3.7320   -9.6270    0.0000 H   0  0  0  0  0  0  0  0  0  0  0  0
   13.4662   -6.6270    0.0000 H   0  0  0  0  0  0  0  0  0  0  0  0
    4.8796   -5.4247    0.0000 H   0  0  0  0  0  0  0  0  0  0  0  0
    4.4810   -4.7344    0.0000 H   0  0  0  0  0  0  0  0  0  0  0  0
    2.0000   -8.0070    0.0000 H   0  0  0  0  0  0  0  0  0  0  0  0
    2.5369   -5.6970    0.0000 H   0  0  0  0  0  0  0  0  0  0  0  0
    3.4030   -4.1970    0.0000 H   0  0  0  0  0  0  0  0  0  0  0  0
  1 28  1  0  0  0  0
 33  1  1  1  0  0  0
  2 33  1  0  0  0  0
  2 43  1  0  0  0  0
 48  3  1  1  0  0  0
 51  3  1  1  0  0  0
  4 49  1  0  0  0  0
 52  4  1  6  0  0  0
  5 51  1  0  0  0  0
  5 56  1  0  0  0  0
  6 52  1  0  0  0  0
  6 59  1  0  0  0  0
 53  7  1  6  0  0  0
 62  7  1  6  0  0  0
 54  8  1  1  0  0  0
  8128  1  0  0  0  0
 55  9  1  1  0  0  0
  9129  1  0  0  0  0
 57 10  1  6  0  0  0
 65 10  1  1  0  0  0
 58 11  1  6  0  0  0
 11132  1  0  0  0  0
 60 12  1  1  0  0  0
 12135  1  0  0  0  0
 13 62  1  0  0  0  0
 13 67  1  0  0  0  0
 14 61  1  0  0  0  0
 14136  1  0  0  0  0
 15 63  1  0  0  0  0
 15141  1  0  0  0  0
 16 65  1  0  0  0  0
 16 71  1  0  0  0  0
 64 17  1  1  0  0  0
 17143  1  0  0  0  0
 66 18  1  1  0  0  0
 18149  1  0  0  0  0
 68 19  1  6  0  0  0
 19150  1  0  0  0  0
 69 20  1  6  0  0  0
 20151  1  0  0  0  0
 70 21  1  1  0  0  0
 21154  1  0  0  0  0
 72 22  1  6  0  0  0
 22155  1  0  0  0  0
 23 74  1  0  0  0  0
 23156  1  0  0  0  0
 24 25  1  0  0  0  0
 24 26  1  0  0  0  0
 24 32  1  0  0  0  0
 24 36  1  1  0  0  0
 25 27  1  0  0  0  0
 25 29  1  0  0  0  0
 25 75  1  6  0  0  0
 26 28  1  0  0  0  0
 26 31  1  0  0  0  0
 26 76  1  6  0  0  0
 27 30  1  0  0  0  0
 27 37  1  0  0  0  0
 27 77  1  1  0  0  0
 28 29  1  0  0  0  0
 28 78  1  6  0  0  0
 29 79  1  0  0  0  0
 29 80  1  0  0  0  0
 30 34  1  0  0  0  0
 30 35  1  0  0  0  0
 30 81  1  6  0  0  0
 31 33  1  0  0  0  0
 31 41  1  6  0  0  0
 31 82  1  0  0  0  0
 32 34  1  0  0  0  0
 32 83  1  0  0  0  0
 32 84  1  0  0  0  0
 33 39  1  0  0  0  0
 34 85  1  0  0  0  0
 34 86  1  0  0  0  0
 35 38  1  0  0  0  0
 35 40  1  0  0  0  0
 35 44  1  1  0  0  0
 36 87  1  0  0  0  0
 36 88  1  0  0  0  0
 36 89  1  0  0  0  0
 37 42  1  0  0  0  0
 37 90  1  0  0  0  0
 37 91  1  0  0  0  0
 38 42  2  0  0  0  0
 38 46  1  0  0  0  0
 39 45  1  0  0  0  0
 39 92  1  0  0  0  0
 39 93  1  0  0  0  0
 40 47  1  0  0  0  0
 40 94  1  0  0  0  0
 40 95  1  0  0  0  0
 41 96  1  0  0  0  0
 41 97  1  0  0  0  0
 41 98  1  0  0  0  0
 42 99  1  0  0  0  0
 43 45  1  0  0  0  0
 43 49  1  0  0  0  0
 43 50  1  6  0  0  0
 44100  1  0  0  0  0
 44101  1  0  0  0  0
 44102  1  0  0  0  0
 45103  1  0  0  0  0
 45104  1  0  0  0  0
 46 48  1  0  0  0  0
 46105  1  0  0  0  0
 46106  1  0  0  0  0
 47 48  1  0  0  0  0
 47107  1  0  0  0  0
 47108  1  0  0  0  0
 48109  1  0  0  0  0
 49110  1  0  0  0  0
 49111  1  0  0  0  0
 50112  1  0  0  0  0
 50113  1  0  0  0  0
 50114  1  0  0  0  0
 51 53  1  0  0  0  0
 51115  1  0  0  0  0
 52 55  1  0  0  0  0
 52116  1  0  0  0  0
 53 54  1  0  0  0  0
 53117  1  0  0  0  0
 54 57  1  0  0  0  0
 54118  1  0  0  0  0
 55 58  1  0  0  0  0
 55119  1  0  0  0  0
 56 57  1  0  0  0  0
 56 61  1  1  0  0  0
 56120  1  0  0  0  0
 57121  1  0  0  0  0
 58 60  1  0  0  0  0
 58122  1  0  0  0  0
 59 60  1  0  0  0  0
 59 63  1  6  0  0  0
 59123  1  0  0  0  0
 60124  1  0  0  0  0
 61125  1  0  0  0  0
 61126  1  0  0  0  0
 62 64  1  0  0  0  0
 62127  1  0  0  0  0
 63130  1  0  0  0  0
 63131  1  0  0  0  0
 64 66  1  0  0  0  0
 64133  1  0  0  0  0
 65 68  1  0  0  0  0
 65134  1  0  0  0  0
 66 69  1  0  0  0  0
 66137  1  0  0  0  0
 67 69  1  0  0  0  0
 67 73  1  1  0  0  0
 67138  1  0  0  0  0
 68 70  1  0  0  0  0
 68139  1  0  0  0  0
 69140  1  0  0  0  0
 70 72  1  0  0  0  0
 70142  1  0  0  0  0
 71 72  1  0  0  0  0
 71 74  1  1  0  0  0
 71144  1  0  0  0  0
 72145  1  0  0  0  0
 73146  1  0  0  0  0
 73147  1  0  0  0  0
 73148  1  0  0  0  0
 74152  1  0  0  0  0
 74153  1  0  0  0  0
M  END
> <PUBCHEM_COMPOUND_CID>
71581001

> <PUBCHEM_COMPOUND_CANONICALIZED>
1

> <PUBCHEM_CACTVS_COMPLEXITY>
1990

> <PUBCHEM_CACTVS_HBOND_ACCEPTOR>
23

> <PUBCHEM_CACTVS_HBOND_DONOR>
13

> <PUBCHEM_CACTVS_ROTATABLE_BOND>
12

> <PUBCHEM_CACTVS_SUBSKEYS>
AAADcfB8PgAAAAAAAAAAAAAAAAAAAaJEAAA0aJEiAAASAGCAAAAAGgAACAAAD1SwgAMCCAAABgCAAiBCAAAAAAAgAAAACAAAAAgREAIAAQAiQAAFwAAPAAPA4PwPgAAAAAAAAADAAAQAACAAAYAADAAAAA==

> <PUBCHEM_IUPAC_OPENEYE_NAME>
(2S,3R,4R,5R,6S)-2-[(2R,3R,4S,5S,6R)-4-hydroxy-6-(hydroxymethyl)-2-[(1S,2S,4S,5'S,6S,7S,8R,9S,12S,13R,16S)-5',7,9,13-tetramethyl-5'-[[(2S,3R,4S,5S,6R)-3,4,5-trihydroxy-6-(hydroxymethyl)tetrahydropyran-2-yl]oxymethyl]spiro[5-oxapentacyclo[10.8.0.02,9.04,8.013,18]icos-18-ene-6,2'-tetrahydrofuran]-16-yl]oxy-5-[(2S,3R,4S,5S,6R)-3,4,5-trihydroxy-6-(hydroxymethyl)tetrahydropyran-2-yl]oxy-tetrahydropyran-3-yl]oxy-6-methyl-tetrahydropyran-3,4,5-triol

> <PUBCHEM_IUPAC_CAS_NAME>
(2S,3R,4R,5R,6S)-2-[[(2R,3R,4S,5S,6R)-4-hydroxy-6-(hydroxymethyl)-2-[[(1S,2S,4S,5'S,6S,7S,8R,9S,12S,13R,16S)-5',7,9,13-tetramethyl-5'-[[(2S,3R,4S,5S,6R)-3,4,5-trihydroxy-6-(hydroxymethyl)-2-oxanyl]oxymethyl]-16-spiro[5-oxapentacyclo[10.8.0.02,9.04,8.013,18]eicos-18-ene-6,2'-oxolane]yl]oxy]-5-[[(2S,3R,4S,5S,6R)-3,4,5-trihydroxy-6-(hydroxymethyl)-2-oxanyl]oxy]-3-oxanyl]oxy]-6-methyloxane-3,4,5-triol

> <PUBCHEM_IUPAC_NAME_MARKUP>
(2<I>S</I>,3<I>R</I>,4<I>R</I>,5<I>R</I>,6<I>S</I>)-2-[(2<I>R</I>,3<I>R</I>,4<I>S</I>,5<I>S</I>,6<I>R</I>)-4-hydroxy-6-(hydroxymethyl)-2-[(1<I>S</I>,2<I>S</I>,4<I>S</I>,5&apos;<I>S</I>,6<I>S</I>,7<I>S</I>,8<I>R</I>,9<I>S</I>,12<I>S</I>,13<I>R</I>,16<I>S</I>)-5&apos;,7,9,13-tetramethyl-5&apos;-[[(2<I>S</I>,3<I>R</I>,4<I>S</I>,5<I>S</I>,6<I>R</I>)-3,4,5-trihydroxy-6-(hydroxymethyl)oxan-2-yl]oxymethyl]spiro[5-oxapentacyclo[10.8.0.0<SUP>2,9</SUP>.0<SUP>4,8</SUP>.0<SUP>13,18</SUP>]icos-18-ene-6,2&apos;-oxolane]-16-yl]oxy-5-[(2<I>S</I>,3<I>R</I>,4<I>S</I>,5<I>S</I>,6<I>R</I>)-3,4,5-trihydroxy-6-(hydroxymethyl)oxan-2-yl]oxyoxan-3-yl]oxy-6-methyloxane-3,4,5-triol

> <PUBCHEM_IUPAC_NAME>
(2S,3R,4R,5R,6S)-2-[(2R,3R,4S,5S,6R)-4-hydroxy-6-(hydroxymethyl)-2-[(1S,2S,4S,5'S,6S,7S,8R,9S,12S,13R,16S)-5',7,9,13-tetramethyl-5'-[[(2S,3R,4S,5S,6R)-3,4,5-trihydroxy-6-(hydroxymethyl)oxan-2-yl]oxymethyl]spiro[5-oxapentacyclo[10.8.0.02,9.04,8.013,18]icos-18-ene-6,2'-oxolane]-16-yl]oxy-5-[(2S,3R,4S,5S,6R)-3,4,5-trihydroxy-6-(hydroxymethyl)oxan-2-yl]oxyoxan-3-yl]oxy-6-methyloxane-3,4,5-triol

> <PUBCHEM_IUPAC_SYSTEMATIC_NAME>
(2S,3R,4R,5R,6S)-2-[(2R,3R,4S,5S,6R)-6-(hydroxymethyl)-5-[(2S,3R,4S,5S,6R)-6-(hydroxymethyl)-3,4,5-tris(oxidanyl)oxan-2-yl]oxy-2-[(1S,2S,4S,5'S,6S,7S,8R,9S,12S,13R,16S)-5'-[[(2S,3R,4S,5S,6R)-6-(hydroxymethyl)-3,4,5-tris(oxidanyl)oxan-2-yl]oxymethyl]-5',7,9,13-tetramethyl-spiro[5-oxapentacyclo[10.8.0.02,9.04,8.013,18]icos-18-ene-6,2'-oxolane]-16-yl]oxy-4-oxidanyl-oxan-3-yl]oxy-6-methyl-oxane-3,4,5-triol

> <PUBCHEM_IUPAC_TRADITIONAL_NAME>
(2S,3R,4R,5R,6S)-2-[(2R,3R,4S,5S,6R)-4-hydroxy-6-methylol-2-[(1S,2S,4S,5'S,6S,7S,8R,9S,12S,13R,16S)-5',7,9,13-tetramethyl-5'-[[(2S,3R,4S,5S,6R)-3,4,5-trihydroxy-6-methylol-tetrahydropyran-2-yl]oxymethyl]spiro[5-oxapentacyclo[10.8.0.02,9.04,8.013,18]eicos-18-ene-6,2'-tetrahydrofuran]-16-yl]oxy-5-[(2S,3R,4S,5S,6R)-3,4,5-trihydroxy-6-methylol-tetrahydropyran-2-yl]oxy-tetrahydropyran-3-yl]oxy-6-methyl-tetrahydropyran-3,4,5-triol

> <PUBCHEM_IUPAC_INCHI>
InChI=1S/C51H82O23/c1-20-31-27(73-51(20)13-12-48(3,74-51)19-65-44-38(61)36(59)33(56)28(16-52)68-44)15-26-24-7-6-22-14-23(8-10-49(22,4)25(24)9-11-50(26,31)5)67-47-43(72-45-39(62)35(58)32(55)21(2)66-45)41(64)42(30(18-54)70-47)71-46-40(63)37(60)34(57)29(17-53)69-46/h6,20-21,23-47,52-64H,7-19H2,1-5H3/t20-,21-,23-,24+,25-,26-,27-,28+,29+,30+,31-,32-,33+,34+,35+,36-,37-,38+,39+,40+,41-,42+,43+,44+,45-,46-,47+,48-,49-,50-,51-/m0/s1

> <PUBCHEM_IUPAC_INCHIKEY>
XNKSKPFVXMYCKU-QTPGKRPGSA-N

> <PUBCHEM_XLOGP3_AA>
-2

> <PUBCHEM_EXACT_MASS>
1062.52468886

> <PUBCHEM_MOLECULAR_FORMULA>
C51H82O23

> <PUBCHEM_MOLECULAR_WEIGHT>
1063.2

> <PUBCHEM_OPENEYE_CAN_SMILES>
CC1C2C(CC3C2(CCC4C3CC=C5C4(CCC(C5)OC6C(C(C(C(O6)CO)OC7C(C(C(C(O7)CO)O)O)O)O)OC8C(C(C(C(O8)C)O)O)O)C)C)OC19CCC(O9)(C)COC1C(C(C(C(O1)CO)O)O)O

> <PUBCHEM_OPENEYE_ISO_SMILES>
C[C@H]1[C@H]2[C@H](C[C@@H]3[C@@]2(CC[C@H]4[C@H]3CC=C5[C@@]4(CC[C@@H](C5)O[C@H]6[C@@H]([C@H]([C@@H]([C@H](O6)CO)O[C@H]7[C@@H]([C@H]([C@@H]([C@H](O7)CO)O)O)O)O)O[C@H]8[C@@H]([C@@H]([C@H]([C@@H](O8)C)O)O)O)C)C)O[C@]19CC[C@@](O9)(C)CO[C@H]1[C@@H]([C@H]([C@@H]([C@H](O1)CO)O)O)O

> <PUBCHEM_CACTVS_TPSA>
355

> <PUBCHEM_MONOISOTOPIC_WEIGHT>
1062.52468886

> <PUBCHEM_TOTAL_CHARGE>
0

> <PUBCHEM_HEAVY_ATOM_COUNT>
74

> <PUBCHEM_ATOM_DEF_STEREO_COUNT>
31

> <PUBCHEM_ATOM_UDEF_STEREO_COUNT>
0

> <PUBCHEM_BOND_DEF_STEREO_COUNT>
0

> <PUBCHEM_BOND_UDEF_STEREO_COUNT>
0

> <PUBCHEM_ISOTOPIC_ATOM_COUNT>
0

> <PUBCHEM_COMPONENT_COUNT>
1

> <PUBCHEM_CACTVS_TAUTO_COUNT>
-1

> <PUBCHEM_COORDINATE_TYPE>
1
5
255

> <PUBCHEM_BONDANNOTATIONS>
33  1  5
57  10  6
65  10  5
58  11  6
60  12  5
64  17  5
66  18  5
68  19  6
69  20  6
70  21  5
72  22  6
24  36  5
25  75  6
26  76  6
27  77  5
28  78  6
48  3  5
51  3  5
30  81  6
31  41  6
35  44  5
52  4  6
43  50  6
56  61  5
59  63  6
67  73  5
53  7  6
62  7  6
71  74  5
54  8  5
55  9  5

$$$$
