71773169
  -OEChem-03112307312D

158166  0     1  0  0  0  0  0999 V2000
    8.5991   -3.2416    0.0000 O   0  0  0  0  0  0  0  0  0  0  0  0
   11.8999    3.6084    0.0000 O   0  0  0  0  0  0  0  0  0  0  0  0
   10.2098    3.9872    0.0000 O   0  0  0  0  0  0  0  0  0  0  0  0
    6.8671   -3.2416    0.0000 O   0  0  0  0  0  0  0  0  0  0  0  0
    8.5991   -5.2416    0.0000 O   0  0  0  0  0  0  0  0  0  0  0  0
    6.8671   -6.2416    0.0000 O   0  0  0  0  0  0  0  0  0  0  0  0
   13.0731    4.8826    0.0000 O   0  0  0  0  0  0  0  0  0  0  0  0
    5.1350   -5.2416    0.0000 O   0  0  0  0  0  0  0  0  0  0  0  0
   10.4286    4.9630    0.0000 O   0  0  0  0  0  0  0  0  0  0  0  0
    9.4651   -3.7416    0.0000 O   0  0  0  0  0  0  0  0  0  0  0  0
    5.1350   -2.2416    0.0000 O   0  0  0  0  0  0  0  0  0  0  0  0
   10.8661    6.9146    0.0000 O   0  0  0  0  0  0  0  0  0  0  0  0
    5.1350   -6.2416    0.0000 O   0  0  0  0  0  0  0  0  0  0  0  0
   12.7749    7.5115    0.0000 O   0  0  0  0  0  0  0  0  0  0  0  0
   10.3312   -6.2416    0.0000 O   0  0  0  0  0  0  0  0  0  0  0  0
    9.9116    6.6162    0.0000 O   0  0  0  0  0  0  0  0  0  0  0  0
   14.9819    5.4794    0.0000 O   0  0  0  0  0  0  0  0  0  0  0  0
    6.8671   -8.2416    0.0000 O   0  0  0  0  0  0  0  0  0  0  0  0
   12.0632   -5.2416    0.0000 O   0  0  0  0  0  0  0  0  0  0  0  0
   12.0632   -3.2416    0.0000 O   0  0  0  0  0  0  0  0  0  0  0  0
    5.1350   -9.2416    0.0000 O   0  0  0  0  0  0  0  0  0  0  0  0
    3.4030   -8.2416    0.0000 O   0  0  0  0  0  0  0  0  0  0  0  0
    8.5197    4.3662    0.0000 O   0  0  0  0  0  0  0  0  0  0  0  0
   11.1972   -1.7416    0.0000 O   0  0  0  0  0  0  0  0  0  0  0  0
    7.0484    5.7208    0.0000 O   0  0  0  0  0  0  0  0  0  0  0  0
    2.5369   -6.7416    0.0000 O   0  0  0  0  0  0  0  0  0  0  0  0
    7.4859    7.6724    0.0000 O   0  0  0  0  0  0  0  0  0  0  0  0
    8.6591    8.9466    0.0000 O   0  0  0  0  0  0  0  0  0  0  0  0
    8.5991    0.0054    0.0000 C   0  0  2  0  0  0  0  0  0  0  0  0
    9.5740   -0.2171    0.0000 C   0  0  2  0  0  0  0  0  0  0  0  0
   10.2942    0.5354    0.0000 C   0  0  1  0  0  0  0  0  0  0  0  0
    9.9949    1.5331    0.0000 C   0  0  2  0  0  0  0  0  0  0  0  0
    8.9651   -1.1181    0.0000 C   0  0  0  0  0  0  0  0  0  0  0  0
    8.5991   -2.2416    0.0000 C   0  0  2  0  0  0  0  0  0  0  0  0
    8.2768    0.9959    0.0000 C   0  0  0  0  0  0  0  0  0  0  0  0
   10.0079   -1.1181    0.0000 C   0  0  0  0  0  0  0  0  0  0  0  0
    7.8173   -0.6181    0.0000 C   0  0  0  0  0  0  0  0  0  0  0  0
    8.9794    1.7649    0.0000 C   0  0  0  0  0  0  0  0  0  0  0  0
   10.7267    2.3341    0.0000 C   0  0  2  0  0  0  0  0  0  0  0  0
   11.3461    0.2696    0.0000 C   0  0  0  0  0  0  0  0  0  0  0  0
    9.5740   -2.0191    0.0000 C   0  0  0  0  0  0  0  0  0  0  0  0
    7.8173   -1.6181    0.0000 C   0  0  0  0  0  0  0  0  0  0  0  0
   10.8919   -0.2663    0.0000 C   0  0  0  0  0  0  0  0  0  0  0  0
   11.7845    2.0927    0.0000 C   0  0  0  0  0  0  0  0  0  0  0  0
   12.0963    1.0535    0.0000 C   0  0  0  0  0  0  0  0  0  0  0  0
    9.9910    3.0115    0.0000 C   0  0  0  0  0  0  0  0  0  0  0  0
   10.9455    3.3099    0.0000 C   0  0  0  0  0  0  0  0  0  0  0  0
    6.9163   -2.0520    0.0000 C   0  0  0  0  0  0  0  0  0  0  0  0
    7.7331   -3.7416    0.0000 C   0  0  2  0  0  0  0  0  0  0  0  0
    7.7331   -4.7416    0.0000 C   0  0  1  0  0  0  0  0  0  0  0  0
    6.8671   -5.2416    0.0000 C   0  0  2  0  0  0  0  0  0  0  0  0
   12.1187    4.5841    0.0000 C   0  0  2  0  0  0  0  0  0  0  0  0
    6.0010   -3.7416    0.0000 C   0  0  1  0  0  0  0  0  0  0  0  0
    6.0010   -4.7416    0.0000 C   0  0  1  0  0  0  0  0  0  0  0  0
   11.3830    5.2615    0.0000 C   0  0  1  0  0  0  0  0  0  0  0  0
    5.1350   -3.2416    0.0000 C   0  0  0  0  0  0  0  0  0  0  0  0
    9.4651   -4.7416    0.0000 C   0  0  2  0  0  0  0  0  0  0  0  0
   11.6018    6.2373    0.0000 C   0  0  2  0  0  0  0  0  0  0  0  0
   13.2918    5.8583    0.0000 C   0  0  1  0  0  0  0  0  0  0  0  0
   12.5562    6.5357    0.0000 C   0  0  1  0  0  0  0  0  0  0  0  0
    6.0010   -6.7416    0.0000 C   0  0  2  0  0  0  0  0  0  0  0  0
   10.3312   -5.2416    0.0000 C   0  0  1  0  0  0  0  0  0  0  0  0
   14.2463    6.1568    0.0000 C   0  0  0  0  0  0  0  0  0  0  0  0
    6.0010   -7.7416    0.0000 C   0  0  1  0  0  0  0  0  0  0  0  0
   11.1972   -4.7416    0.0000 C   0  0  2  0  0  0  0  0  0  0  0  0
    9.6929    5.6404    0.0000 C   0  0  2  0  0  0  0  0  0  0  0  0
   10.3312   -3.2416    0.0000 C   0  0  1  0  0  0  0  0  0  0  0  0
   11.1972   -3.7416    0.0000 C   0  0  1  0  0  0  0  0  0  0  0  0
    5.1350   -8.2416    0.0000 C   0  0  2  0  0  0  0  0  0  0  0  0
    4.2690   -6.7416    0.0000 C   0  0  1  0  0  0  0  0  0  0  0  0
    4.2690   -7.7416    0.0000 C   0  0  1  0  0  0  0  0  0  0  0  0
    8.7385    5.3419    0.0000 C   0  0  1  0  0  0  0  0  0  0  0  0
   10.3312   -2.2416    0.0000 C   0  0  0  0  0  0  0  0  0  0  0  0
    8.0028    6.0193    0.0000 C   0  0  2  0  0  0  0  0  0  0  0  0
    9.1760    7.2935    0.0000 C   0  0  1  0  0  0  0  0  0  0  0  0
    3.4030   -6.2416    0.0000 C   0  0  0  0  0  0  0  0  0  0  0  0
    8.2216    6.9951    0.0000 C   0  0  1  0  0  0  0  0  0  0  0  0
    9.3948    8.2693    0.0000 C   0  0  0  0  0  0  0  0  0  0  0  0
   10.4027   -0.4063    0.0000 H   0  0  0  0  0  0  0  0  0  0  0  0
    9.7412    2.3444    0.0000 H   0  0  0  0  0  0  0  0  0  0  0  0
    9.4666   -1.4827    0.0000 H   0  0  0  0  0  0  0  0  0  0  0  0
    9.4666   -0.7535    0.0000 H   0  0  0  0  0  0  0  0  0  0  0  0
    7.8974    1.4862    0.0000 H   0  0  0  0  0  0  0  0  0  0  0  0
    7.7287    0.7060    0.0000 H   0  0  0  0  0  0  0  0  0  0  0  0
   10.4927   -1.5047    0.0000 H   0  0  0  0  0  0  0  0  0  0  0  0
   10.4927   -0.7315    0.0000 H   0  0  0  0  0  0  0  0  0  0  0  0
    7.5483   -0.0595    0.0000 H   0  0  0  0  0  0  0  0  0  0  0  0
    7.2128   -0.7561    0.0000 H   0  0  0  0  0  0  0  0  0  0  0  0
    9.2187    2.3368    0.0000 H   0  0  0  0  0  0  0  0  0  0  0  0
    8.4568    2.0986    0.0000 H   0  0  0  0  0  0  0  0  0  0  0  0
   11.0936   -0.2967    0.0000 H   0  0  0  0  0  0  0  0  0  0  0  0
   11.8608   -0.0761    0.0000 H   0  0  0  0  0  0  0  0  0  0  0  0
    9.5740   -2.6391    0.0000 H   0  0  0  0  0  0  0  0  0  0  0  0
   10.1785   -2.1570    0.0000 H   0  0  0  0  0  0  0  0  0  0  0  0
   10.3948   -0.6369    0.0000 H   0  0  0  0  0  0  0  0  0  0  0  0
   11.2624   -0.7634    0.0000 H   0  0  0  0  0  0  0  0  0  0  0  0
   11.3890    0.1042    0.0000 H   0  0  0  0  0  0  0  0  0  0  0  0
   12.4001    2.1666    0.0000 H   0  0  0  0  0  0  0  0  0  0  0  0
   11.8170    2.7118    0.0000 H   0  0  0  0  0  0  0  0  0  0  0  0
   12.4643    0.5545    0.0000 H   0  0  0  0  0  0  0  0  0  0  0  0
   12.6509    1.3306    0.0000 H   0  0  0  0  0  0  0  0  0  0  0  0
   10.4110    3.4676    0.0000 H   0  0  0  0  0  0  0  0  0  0  0  0
    9.5349    3.4314    0.0000 H   0  0  0  0  0  0  0  0  0  0  0  0
    9.5711    2.5554    0.0000 H   0  0  0  0  0  0  0  0  0  0  0  0
    6.4040   -1.7027    0.0000 H   0  0  0  0  0  0  0  0  0  0  0  0
    6.8700   -2.6703    0.0000 H   0  0  0  0  0  0  0  0  0  0  0  0
    7.7331   -3.1216    0.0000 H   0  0  0  0  0  0  0  0  0  0  0  0
    7.7331   -5.3616    0.0000 H   0  0  0  0  0  0  0  0  0  0  0  0
    6.3301   -5.5516    0.0000 H   0  0  0  0  0  0  0  0  0  0  0  0
   11.5269    4.3991    0.0000 H   0  0  0  0  0  0  0  0  0  0  0  0
    6.0010   -3.1216    0.0000 H   0  0  0  0  0  0  0  0  0  0  0  0
    5.4641   -4.4316    0.0000 H   0  0  0  0  0  0  0  0  0  0  0  0
   10.9269    5.6814    0.0000 H   0  0  0  0  0  0  0  0  0  0  0  0
    4.5244   -3.1339    0.0000 H   0  0  0  0  0  0  0  0  0  0  0  0
    4.9230   -3.8242    0.0000 H   0  0  0  0  0  0  0  0  0  0  0  0
    9.4651   -5.3616    0.0000 H   0  0  0  0  0  0  0  0  0  0  0  0
   11.7374    6.8422    0.0000 H   0  0  0  0  0  0  0  0  0  0  0  0
   13.7480    5.4384    0.0000 H   0  0  0  0  0  0  0  0  0  0  0  0
    4.5981   -4.9316    0.0000 H   0  0  0  0  0  0  0  0  0  0  0  0
   12.1001    6.9556    0.0000 H   0  0  0  0  0  0  0  0  0  0  0  0
    6.5380   -7.0516    0.0000 H   0  0  0  0  0  0  0  0  0  0  0  0
   10.8681   -5.5516    0.0000 H   0  0  0  0  0  0  0  0  0  0  0  0
    4.5981   -1.9316    0.0000 H   0  0  0  0  0  0  0  0  0  0  0  0
   14.7391    6.5330    0.0000 H   0  0  0  0  0  0  0  0  0  0  0  0
   13.9613    6.7074    0.0000 H   0  0  0  0  0  0  0  0  0  0  0  0
    6.0010   -8.3616    0.0000 H   0  0  0  0  0  0  0  0  0  0  0  0
   11.1972   -5.3616    0.0000 H   0  0  0  0  0  0  0  0  0  0  0  0
    9.5573    5.0354    0.0000 H   0  0  0  0  0  0  0  0  0  0  0  0
    9.7942   -2.9316    0.0000 H   0  0  0  0  0  0  0  0  0  0  0  0
   11.0017    7.5196    0.0000 H   0  0  0  0  0  0  0  0  0  0  0  0
   11.7341   -4.0516    0.0000 H   0  0  0  0  0  0  0  0  0  0  0  0
   13.3667    7.6965    0.0000 H   0  0  0  0  0  0  0  0  0  0  0  0
    4.5981   -8.5516    0.0000 H   0  0  0  0  0  0  0  0  0  0  0  0
    4.2690   -6.1216    0.0000 H   0  0  0  0  0  0  0  0  0  0  0  0
   10.8681   -6.5516    0.0000 H   0  0  0  0  0  0  0  0  0  0  0  0
    4.2690   -8.3616    0.0000 H   0  0  0  0  0  0  0  0  0  0  0  0
    8.1467    5.1569    0.0000 H   0  0  0  0  0  0  0  0  0  0  0  0
   10.1191   -1.6590    0.0000 H   0  0  0  0  0  0  0  0  0  0  0  0
    9.7206   -2.3493    0.0000 H   0  0  0  0  0  0  0  0  0  0  0  0
   15.5737    5.6645    0.0000 H   0  0  0  0  0  0  0  0  0  0  0  0
    7.4040   -7.9316    0.0000 H   0  0  0  0  0  0  0  0  0  0  0  0
   12.6002   -4.9316    0.0000 H   0  0  0  0  0  0  0  0  0  0  0  0
    7.5467    6.4392    0.0000 H   0  0  0  0  0  0  0  0  0  0  0  0
    9.7677    7.4785    0.0000 H   0  0  0  0  0  0  0  0  0  0  0  0
    3.8015   -5.7666    0.0000 H   0  0  0  0  0  0  0  0  0  0  0  0
    3.0044   -5.7666    0.0000 H   0  0  0  0  0  0  0  0  0  0  0  0
   12.0632   -2.6216    0.0000 H   0  0  0  0  0  0  0  0  0  0  0  0
    8.3572    7.6000    0.0000 H   0  0  0  0  0  0  0  0  0  0  0  0
    4.5981   -9.5516    0.0000 H   0  0  0  0  0  0  0  0  0  0  0  0
    3.4030   -8.8616    0.0000 H   0  0  0  0  0  0  0  0  0  0  0  0
    7.9280    4.1811    0.0000 H   0  0  0  0  0  0  0  0  0  0  0  0
   11.1972   -1.1216    0.0000 H   0  0  0  0  0  0  0  0  0  0  0  0
    9.9670    8.0306    0.0000 H   0  0  0  0  0  0  0  0  0  0  0  0
    9.7291    8.7914    0.0000 H   0  0  0  0  0  0  0  0  0  0  0  0
    6.5922    6.1408    0.0000 H   0  0  0  0  0  0  0  0  0  0  0  0
    2.0000   -6.4316    0.0000 H   0  0  0  0  0  0  0  0  0  0  0  0
    6.8941    7.4874    0.0000 H   0  0  0  0  0  0  0  0  0  0  0  0
    8.7947    9.5516    0.0000 H   0  0  0  0  0  0  0  0  0  0  0  0
 34  1  1  6  0  0  0
 49  1  1  1  0  0  0
  2 47  1  0  0  0  0
 52  2  1  1  0  0  0
  3 47  2  0  0  0  0
  4 49  1  0  0  0  0
  4 53  1  0  0  0  0
 50  5  1  6  0  0  0
 57  5  1  6  0  0  0
 51  6  1  1  0  0  0
 61  6  1  1  0  0  0
  7 52  1  0  0  0  0
  7 59  1  0  0  0  0
 54  8  1  6  0  0  0
  8119  1  0  0  0  0
 55  9  1  6  0  0  0
 66  9  1  1  0  0  0
 10 57  1  0  0  0  0
 10 67  1  0  0  0  0
 11 56  1  0  0  0  0
 11123  1  0  0  0  0
 58 12  1  1  0  0  0
 12130  1  0  0  0  0
 13 61  1  0  0  0  0
 13 70  1  0  0  0  0
 60 14  1  6  0  0  0
 14132  1  0  0  0  0
 62 15  1  1  0  0  0
 15135  1  0  0  0  0
 16 66  1  0  0  0  0
 16 75  1  0  0  0  0
 17 63  1  0  0  0  0
 17140  1  0  0  0  0
 64 18  1  6  0  0  0
 18141  1  0  0  0  0
 65 19  1  6  0  0  0
 19142  1  0  0  0  0
 68 20  1  1  0  0  0
 20147  1  0  0  0  0
 69 21  1  1  0  0  0
 21149  1  0  0  0  0
 71 22  1  6  0  0  0
 22150  1  0  0  0  0
 72 23  1  6  0  0  0
 23151  1  0  0  0  0
 24 73  1  0  0  0  0
 24152  1  0  0  0  0
 74 25  1  1  0  0  0
 25155  1  0  0  0  0
 26 76  1  0  0  0  0
 26156  1  0  0  0  0
 77 27  1  6  0  0  0
 27157  1  0  0  0  0
 28 78  1  0  0  0  0
 28158  1  0  0  0  0
 29 30  1  0  0  0  0
 29 33  1  0  0  0  0
 29 35  1  6  0  0  0
 29 37  1  0  0  0  0
 30 31  1  0  0  0  0
 30 36  1  0  0  0  0
 30 79  1  1  0  0  0
 31 32  1  0  0  0  0
 31 40  1  0  0  0  0
 31 43  1  6  0  0  0
 32 38  1  0  0  0  0
 32 39  1  0  0  0  0
 32 80  1  1  0  0  0
 33 34  1  0  0  0  0
 33 81  1  0  0  0  0
 33 82  1  0  0  0  0
 34 41  1  0  0  0  0
 34 42  1  0  0  0  0
 35 38  1  0  0  0  0
 35 83  1  0  0  0  0
 35 84  1  0  0  0  0
 36 41  1  0  0  0  0
 36 85  1  0  0  0  0
 36 86  1  0  0  0  0
 37 42  1  0  0  0  0
 37 87  1  0  0  0  0
 37 88  1  0  0  0  0
 38 89  1  0  0  0  0
 38 90  1  0  0  0  0
 39 44  1  0  0  0  0
 39 46  1  1  0  0  0
 39 47  1  0  0  0  0
 40 45  1  0  0  0  0
 40 91  1  0  0  0  0
 40 92  1  0  0  0  0
 41 93  1  0  0  0  0
 41 94  1  0  0  0  0
 42 48  2  0  0  0  0
 43 95  1  0  0  0  0
 43 96  1  0  0  0  0
 43 97  1  0  0  0  0
 44 45  1  0  0  0  0
 44 98  1  0  0  0  0
 44 99  1  0  0  0  0
 45100  1  0  0  0  0
 45101  1  0  0  0  0
 46102  1  0  0  0  0
 46103  1  0  0  0  0
 46104  1  0  0  0  0
 48105  1  0  0  0  0
 48106  1  0  0  0  0
 49 50  1  0  0  0  0
 49107  1  0  0  0  0
 50 51  1  0  0  0  0
 50108  1  0  0  0  0
 51 54  1  0  0  0  0
 51109  1  0  0  0  0
 52 55  1  0  0  0  0
 52110  1  0  0  0  0
 53 54  1  0  0  0  0
 53 56  1  1  0  0  0
 53111  1  0  0  0  0
 54112  1  0  0  0  0
 55 58  1  0  0  0  0
 55113  1  0  0  0  0
 56114  1  0  0  0  0
 56115  1  0  0  0  0
 57 62  1  0  0  0  0
 57116  1  0  0  0  0
 58 60  1  0  0  0  0
 58117  1  0  0  0  0
 59 60  1  0  0  0  0
 59 63  1  1  0  0  0
 59118  1  0  0  0  0
 60120  1  0  0  0  0
 61 64  1  0  0  0  0
 61121  1  0  0  0  0
 62 65  1  0  0  0  0
 62122  1  0  0  0  0
 63124  1  0  0  0  0
 63125  1  0  0  0  0
 64 69  1  0  0  0  0
 64126  1  0  0  0  0
 65 68  1  0  0  0  0
 65127  1  0  0  0  0
 66 72  1  0  0  0  0
 66128  1  0  0  0  0
 67 68  1  0  0  0  0
 67 73  1  6  0  0  0
 67129  1  0  0  0  0
 68131  1  0  0  0  0
 69 71  1  0  0  0  0
 69133  1  0  0  0  0
 70 71  1  0  0  0  0
 70 76  1  1  0  0  0
 70134  1  0  0  0  0
 71136  1  0  0  0  0
 72 74  1  0  0  0  0
 72137  1  0  0  0  0
 73138  1  0  0  0  0
 73139  1  0  0  0  0
 74 77  1  0  0  0  0
 74143  1  0  0  0  0
 75 77  1  0  0  0  0
 75 78  1  1  0  0  0
 75144  1  0  0  0  0
 76145  1  0  0  0  0
 76146  1  0  0  0  0
 77148  1  0  0  0  0
 78153  1  0  0  0  0
 78154  1  0  0  0  0
M  END
> <PUBCHEM_COMPOUND_CID>
71773169

> <PUBCHEM_COMPOUND_CANONICALIZED>
1

> <PUBCHEM_CACTVS_COMPLEXITY>
2080

> <PUBCHEM_CACTVS_HBOND_ACCEPTOR>
28

> <PUBCHEM_CACTVS_HBOND_DONOR>
17

> <PUBCHEM_CACTVS_ROTATABLE_BOND>
16

> <PUBCHEM_CACTVS_SUBSKEYS>
AAADcfB8PgAAAAAAAAAAAAAAAAAAAYAAAAA0aNEiRgAAAADAAAAAGgAACAAAD1SwgAMCCAAABgCIAgDSCAAAAAAgAAAAAAEAAAgRFBIAIQAiQAAFgAAHIAHI6PyPgAAAAAAAAADAAAYAACAAAYAAAAAAAA==

> <PUBCHEM_IUPAC_OPENEYE_NAME>
[(2S,3R,4S,5S,6R)-4,5-dihydroxy-6-(hydroxymethyl)-3-[(2S,3R,4S,5S,6R)-3,4,5-trihydroxy-6-(hydroxymethyl)tetrahydropyran-2-yl]oxy-tetrahydropyran-2-yl] (1R,4S,5R,9S,10R,13S)-13-[(2S,3R,4S,5R,6R)-5-hydroxy-6-(hydroxymethyl)-3,4-bis[[(2S,3R,4S,5S,6R)-3,4,5-trihydroxy-6-(hydroxymethyl)tetrahydropyran-2-yl]oxy]tetrahydropyran-2-yl]oxy-5,9-dimethyl-14-methylene-tetracyclo[11.2.1.01,10.04,9]hexadecane-5-carboxylate

> <PUBCHEM_IUPAC_CAS_NAME>
(1R,4S,5R,9S,10R,13S)-13-[[(2S,3R,4S,5R,6R)-5-hydroxy-6-(hydroxymethyl)-3,4-bis[[(2S,3R,4S,5S,6R)-3,4,5-trihydroxy-6-(hydroxymethyl)-2-oxanyl]oxy]-2-oxanyl]oxy]-5,9-dimethyl-14-methylene-5-tetracyclo[11.2.1.01,10.04,9]hexadecanecarboxylic acid [(2S,3R,4S,5S,6R)-4,5-dihydroxy-6-(hydroxymethyl)-3-[[(2S,3R,4S,5S,6R)-3,4,5-trihydroxy-6-(hydroxymethyl)-2-oxanyl]oxy]-2-oxanyl] ester

> <PUBCHEM_IUPAC_NAME_MARKUP>
[(2<I>S</I>,3<I>R</I>,4<I>S</I>,5<I>S</I>,6<I>R</I>)-4,5-dihydroxy-6-(hydroxymethyl)-3-[(2<I>S</I>,3<I>R</I>,4<I>S</I>,5<I>S</I>,6<I>R</I>)-3,4,5-trihydroxy-6-(hydroxymethyl)oxan-2-yl]oxyoxan-2-yl] (1<I>R</I>,4<I>S</I>,5<I>R</I>,9<I>S</I>,10<I>R</I>,13<I>S</I>)-13-[(2<I>S</I>,3<I>R</I>,4<I>S</I>,5<I>R</I>,6<I>R</I>)-5-hydroxy-6-(hydroxymethyl)-3,4-bis[[(2<I>S</I>,3<I>R</I>,4<I>S</I>,5<I>S</I>,6<I>R</I>)-3,4,5-trihydroxy-6-(hydroxymethyl)oxan-2-yl]oxy]oxan-2-yl]oxy-5,9-dimethyl-14-methylidenetetracyclo[11.2.1.0<SUP>1,10</SUP>.0<SUP>4,9</SUP>]hexadecane-5-carboxylate

> <PUBCHEM_IUPAC_NAME>
[(2S,3R,4S,5S,6R)-4,5-dihydroxy-6-(hydroxymethyl)-3-[(2S,3R,4S,5S,6R)-3,4,5-trihydroxy-6-(hydroxymethyl)oxan-2-yl]oxyoxan-2-yl] (1R,4S,5R,9S,10R,13S)-13-[(2S,3R,4S,5R,6R)-5-hydroxy-6-(hydroxymethyl)-3,4-bis[[(2S,3R,4S,5S,6R)-3,4,5-trihydroxy-6-(hydroxymethyl)oxan-2-yl]oxy]oxan-2-yl]oxy-5,9-dimethyl-14-methylidenetetracyclo[11.2.1.01,10.04,9]hexadecane-5-carboxylate

> <PUBCHEM_IUPAC_SYSTEMATIC_NAME>
[(2S,3R,4S,5S,6R)-6-(hydroxymethyl)-3-[(2S,3R,4S,5S,6R)-6-(hydroxymethyl)-3,4,5-tris(oxidanyl)oxan-2-yl]oxy-4,5-bis(oxidanyl)oxan-2-yl] (1R,4S,5R,9S,10R,13S)-13-[(2S,3R,4S,5R,6R)-6-(hydroxymethyl)-3,4-bis[[(2S,3R,4S,5S,6R)-6-(hydroxymethyl)-3,4,5-tris(oxidanyl)oxan-2-yl]oxy]-5-oxidanyl-oxan-2-yl]oxy-5,9-dimethyl-14-methylidene-tetracyclo[11.2.1.01,10.04,9]hexadecane-5-carboxylate

> <PUBCHEM_IUPAC_TRADITIONAL_NAME>
(1R,4S,5R,9S,10R,13S)-13-[(2S,3R,4S,5R,6R)-5-hydroxy-6-methylol-3,4-bis[[(2S,3R,4S,5S,6R)-3,4,5-trihydroxy-6-methylol-tetrahydropyran-2-yl]oxy]tetrahydropyran-2-yl]oxy-5,9-dimethyl-14-methylene-tetracyclo[11.2.1.01,10.04,9]hexadecane-5-carboxylic acid [(2S,3R,4S,5S,6R)-4,5-dihydroxy-6-methylol-3-[(2S,3R,4S,5S,6R)-3,4,5-trihydroxy-6-methylol-tetrahydropyran-2-yl]oxy-tetrahydropyran-2-yl] ester

> <PUBCHEM_IUPAC_INCHI>
InChI=1S/C50H80O28/c1-18-11-49-9-5-24-47(2,7-4-8-48(24,3)46(68)77-44-39(34(64)29(59)22(15-54)72-44)75-42-36(66)32(62)27(57)20(13-52)70-42)25(49)6-10-50(18,17-49)78-45-40(76-43-37(67)33(63)28(58)21(14-53)71-43)38(30(60)23(16-55)73-45)74-41-35(65)31(61)26(56)19(12-51)69-41/h19-45,51-67H,1,4-17H2,2-3H3/t19-,20-,21-,22-,23-,24+,25+,26-,27-,28-,29-,30-,31+,32+,33+,34+,35-,36-,37-,38+,39-,40-,41+,42+,43+,44+,45+,47-,48-,49-,50+/m1/s1

> <PUBCHEM_IUPAC_INCHIKEY>
RPYRMTHVSUWHSV-CUZJHZIBSA-N

> <PUBCHEM_XLOGP3_AA>
-4.4

> <PUBCHEM_EXACT_MASS>
1128.48361189

> <PUBCHEM_MOLECULAR_FORMULA>
C50H80O28

> <PUBCHEM_MOLECULAR_WEIGHT>
1129.2

> <PUBCHEM_OPENEYE_CAN_SMILES>
CC12CCCC(C1CCC34C2CCC(C3)(C(=C)C4)OC5C(C(C(C(O5)CO)O)OC6C(C(C(C(O6)CO)O)O)O)OC7C(C(C(C(O7)CO)O)O)O)(C)C(=O)OC8C(C(C(C(O8)CO)O)O)OC9C(C(C(C(O9)CO)O)O)O

> <PUBCHEM_OPENEYE_ISO_SMILES>
C[C@@]12CCC[C@@]([C@H]1CC[C@]34[C@H]2CC[C@](C3)(C(=C)C4)O[C@H]5[C@@H]([C@H]([C@@H]([C@H](O5)CO)O)O[C@H]6[C@@H]([C@H]([C@@H]([C@H](O6)CO)O)O)O)O[C@H]7[C@@H]([C@H]([C@@H]([C@H](O7)CO)O)O)O)(C)C(=O)O[C@H]8[C@@H]([C@H]([C@@H]([C@H](O8)CO)O)O)O[C@H]9[C@@H]([C@H]([C@@H]([C@H](O9)CO)O)O)O

> <PUBCHEM_CACTVS_TPSA>
453

> <PUBCHEM_MONOISOTOPIC_WEIGHT>
1128.48361189

> <PUBCHEM_TOTAL_CHARGE>
0

> <PUBCHEM_HEAVY_ATOM_COUNT>
78

> <PUBCHEM_ATOM_DEF_STEREO_COUNT>
31

> <PUBCHEM_ATOM_UDEF_STEREO_COUNT>
0

> <PUBCHEM_BOND_DEF_STEREO_COUNT>
0

> <PUBCHEM_BOND_UDEF_STEREO_COUNT>
0

> <PUBCHEM_ISOTOPIC_ATOM_COUNT>
0

> <PUBCHEM_COMPONENT_COUNT>
1

> <PUBCHEM_CACTVS_TAUTO_COUNT>
1

> <PUBCHEM_COORDINATE_TYPE>
1
5
255

> <PUBCHEM_BONDANNOTATIONS>
34  1  6
49  1  5
58  12  5
60  14  6
62  15  5
64  18  6
65  19  6
52  2  5
68  20  5
69  21  5
71  22  6
72  23  6
74  25  5
77  27  6
29  35  6
30  79  5
31  43  6
32  80  5
39  46  5
50  5  6
57  5  6
53  56  5
59  63  5
51  6  5
61  6  5
67  73  6
70  76  5
75  78  5
54  8  6
55  9  6
66  9  5

$$$$
