736681
  -OEChem-03112307223D

 30 30  0     0  0  0  0  0  0999 V2000
   -3.0860    1.8967   -0.5522 O   0  0  0  0  0  0  0  0  0  0  0  0
    3.8109    0.5895    0.0696 O   0  0  0  0  0  0  0  0  0  0  0  0
   -4.8360   -0.1686    0.0782 O   0  0  0  0  0  0  0  0  0  0  0  0
    3.5023   -1.6865   -0.1790 O   0  0  0  0  0  0  0  0  0  0  0  0
   -0.7451   -0.8658   -0.0507 C   0  0  0  0  0  0  0  0  0  0  0  0
   -1.2403    0.4091   -0.3248 C   0  0  0  0  0  0  0  0  0  0  0  0
   -2.6141    0.6477   -0.2820 C   0  0  0  0  0  0  0  0  0  0  0  0
   -1.6235   -1.9021    0.2661 C   0  0  0  0  0  0  0  0  0  0  0  0
   -3.4923   -0.3888    0.0348 C   0  0  0  0  0  0  0  0  0  0  0  0
   -2.9971   -1.6636    0.3089 C   0  0  0  0  0  0  0  0  0  0  0  0
    0.6872   -1.1148   -0.0943 C   0  0  0  0  0  0  0  0  0  0  0  0
    1.6470   -0.1673   -0.0059 C   0  0  0  0  0  0  0  0  0  0  0  0
    5.2311    0.4113    0.0439 C   0  0  0  0  0  0  0  0  0  0  0  0
    3.0767   -0.5493   -0.0523 C   0  0  0  0  0  0  0  0  0  0  0  0
    5.9002    1.7614    0.1892 C   0  0  0  0  0  0  0  0  0  0  0  0
   -3.2209    2.7912    0.5505 C   0  0  0  0  0  0  0  0  0  0  0  0
   -0.5901    1.2365   -0.5955 H   0  0  0  0  0  0  0  0  0  0  0  0
   -1.2559   -2.9020    0.4842 H   0  0  0  0  0  0  0  0  0  0  0  0
   -3.6702   -2.4798    0.5572 H   0  0  0  0  0  0  0  0  0  0  0  0
    0.9772   -2.1586   -0.1955 H   0  0  0  0  0  0  0  0  0  0  0  0
    1.4243    0.8859    0.1225 H   0  0  0  0  0  0  0  0  0  0  0  0
    5.5320   -0.2422    0.8705 H   0  0  0  0  0  0  0  0  0  0  0  0
    5.5243   -0.0470   -0.9072 H   0  0  0  0  0  0  0  0  0  0  0  0
    6.9891    1.6620    0.1736 H   0  0  0  0  0  0  0  0  0  0  0  0
    5.5946    2.4321   -0.6206 H   0  0  0  0  0  0  0  0  0  0  0  0
    5.6021    2.2401    1.1278 H   0  0  0  0  0  0  0  0  0  0  0  0
   -2.2473    2.9753    1.0158 H   0  0  0  0  0  0  0  0  0  0  0  0
   -3.9209    2.3894    1.2898 H   0  0  0  0  0  0  0  0  0  0  0  0
   -3.6144    3.7401    0.1759 H   0  0  0  0  0  0  0  0  0  0  0  0
   -5.2855   -0.9983    0.3141 H   0  0  0  0  0  0  0  0  0  0  0  0
  1  7  1  0  0  0  0
  1 16  1  0  0  0  0
  2 13  1  0  0  0  0
  2 14  1  0  0  0  0
  3  9  1  0  0  0  0
  3 30  1  0  0  0  0
  4 14  2  0  0  0  0
  5  6  2  0  0  0  0
  5  8  1  0  0  0  0
  5 11  1  0  0  0  0
  6  7  1  0  0  0  0
  6 17  1  0  0  0  0
  7  9  2  0  0  0  0
  8 10  2  0  0  0  0
  8 18  1  0  0  0  0
  9 10  1  0  0  0  0
 10 19  1  0  0  0  0
 11 12  2  0  0  0  0
 11 20  1  0  0  0  0
 12 14  1  0  0  0  0
 12 21  1  0  0  0  0
 13 15  1  0  0  0  0
 13 22  1  0  0  0  0
 13 23  1  0  0  0  0
 15 24  1  0  0  0  0
 15 25  1  0  0  0  0
 15 26  1  0  0  0  0
 16 27  1  0  0  0  0
 16 28  1  0  0  0  0
 16 29  1  0  0  0  0
M  END
> <PUBCHEM_COMPOUND_CID>
736681

> <PUBCHEM_CONFORMER_RMSD>
0.6

> <PUBCHEM_CONFORMER_DIVERSEORDER>
1
4
47
21
3
29
24
34
19
2
27
31
12
22
15
42
32
43
14
16
20
18
44
30
46
13
25
8
28
35
37
39
36
45
38
9
6
7
33
5
17
23
49
48
11
26
41
10
40

> <PUBCHEM_MMFF94_PARTIAL_CHARGES>
21
1 -0.36
10 -0.15
11 -0.18
12 -0.14
13 0.28
14 0.71
16 0.28
17 0.15
18 0.15
19 0.15
2 -0.43
20 0.15
21 0.15
3 -0.53
30 0.45
4 -0.57
5 0.03
6 -0.15
7 0.08
8 -0.15
9 0.08

> <PUBCHEM_EFFECTIVE_ROTOR_COUNT>
5

> <PUBCHEM_PHARMACOPHORE_FEATURES>
4
1 1 acceptor
1 3 donor
1 4 acceptor
6 5 6 7 8 9 10 rings

> <PUBCHEM_HEAVY_ATOM_COUNT>
16

> <PUBCHEM_ATOM_DEF_STEREO_COUNT>
0

> <PUBCHEM_ATOM_UDEF_STEREO_COUNT>
0

> <PUBCHEM_BOND_DEF_STEREO_COUNT>
1

> <PUBCHEM_BOND_UDEF_STEREO_COUNT>
0

> <PUBCHEM_ISOTOPIC_ATOM_COUNT>
0

> <PUBCHEM_COMPONENT_COUNT>
1

> <PUBCHEM_CACTVS_TAUTO_COUNT>
3

> <PUBCHEM_CONFORMER_ID>
000B3DA900000001

> <PUBCHEM_MMFF94_ENERGY>
47.21

> <PUBCHEM_FEATURE_SELFOVERLAP>
20.297

> <PUBCHEM_SHAPE_FINGERPRINT>
10014705 185 18187359913525597653
10608611 8 18411980226264008046
11405975 8 18336546002501288754
12107183 9 17830727660959057034
12390115 104 18199765660573100393
12507560 40 18411703166941114662
12596602 18 17168140187035185864
12916748 109 18409173203127294730
13897977 58 18335703870555814599
14251764 75 17409659753117932993
15042514 8 18263088876232807627
15196674 1 18410855413152722308
17834072 32 18266179422633960549
17844677 252 18411990161172080204
18522853 276 18334576858157548845
20281389 69 18409444826462183616
20510252 161 18341052930617108601
20645477 56 18410575101858921818
20645477 70 17274833407045375542
21652331 79 18409729568848371924
23402539 116 18410004460310332615
23557571 272 18342468036394464868
23559900 14 18339354296389269256
245318 6 16737783790146825092
26918003 58 11891327656205324054
2916195 48 18128809928095440128
3545911 37 18410577297188505862
4214541 1 18409166584888445254
441001 317 18411135848921505168
449060 50 18409448107289274358
5104073 3 18261111820854214690
633830 44 18198056984832367174
77779 3 18409730647418075598
90127 26 18337685126464560682

> <PUBCHEM_SHAPE_MULTIPOLES>
305.8
11.4
2.3
0.66
14.95
1.18
0.01
4.96
0.62
-1.56
0.27
-0.14
0.07
0.25

> <PUBCHEM_SHAPE_SELFOVERLAP>
626.436

> <PUBCHEM_SHAPE_VOLUME>
177.3

> <PUBCHEM_COORDINATE_TYPE>
2
5
10

$$$$
