7408474
  -OEChem-03112307053D

 17 17  0     1  0  0  0  0  0999 V2000
   -2.3287   -0.9482   -0.2692 O   0  0  0  0  0  0  0  0  0  0  0  0
    2.7799    0.4724   -0.2446 O   0  0  0  0  0  0  0  0  0  0  0  0
    0.5478    1.0528   -0.1664 N   0  0  0  0  0  0  0  0  0  0  0  0
   -0.1041   -1.5140   -0.1071 N   0  0  0  0  0  0  0  0  0  0  0  0
   -0.7542    0.7656    0.4193 C   0  0  2  0  0  0  0  0  0  0  0  0
   -1.1631   -0.6214   -0.0588 C   0  0  0  0  0  0  0  0  0  0  0  0
    1.1939   -1.1951    0.4507 C   0  0  0  0  0  0  0  0  0  0  0  0
   -1.7768    1.8229    0.0352 C   0  0  0  0  0  0  0  0  0  0  0  0
    1.6053    0.1650   -0.0590 C   0  0  0  0  0  0  0  0  0  0  0  0
   -0.6343    0.7333    1.5085 H   0  0  0  0  0  0  0  0  0  0  0  0
    0.7594    2.0066   -0.4443 H   0  0  0  0  0  0  0  0  0  0  0  0
    1.9053   -1.9540    0.1158 H   0  0  0  0  0  0  0  0  0  0  0  0
    1.1263   -1.1838    1.5421 H   0  0  0  0  0  0  0  0  0  0  0  0
   -0.2981   -2.4760   -0.3677 H   0  0  0  0  0  0  0  0  0  0  0  0
   -1.4510    2.8168    0.3598 H   0  0  0  0  0  0  0  0  0  0  0  0
   -1.9226    1.8584   -1.0504 H   0  0  0  0  0  0  0  0  0  0  0  0
   -2.7486    1.6160    0.4956 H   0  0  0  0  0  0  0  0  0  0  0  0
  1  6  2  0  0  0  0
  2  9  2  0  0  0  0
  3  5  1  0  0  0  0
  3  9  1  0  0  0  0
  3 11  1  0  0  0  0
  4  6  1  0  0  0  0
  4  7  1  0  0  0  0
  4 14  1  0  0  0  0
  5  6  1  0  0  0  0
  5  8  1  0  0  0  0
  5 10  1  0  0  0  0
  7  9  1  0  0  0  0
  7 12  1  0  0  0  0
  7 13  1  0  0  0  0
  8 15  1  0  0  0  0
  8 16  1  0  0  0  0
  8 17  1  0  0  0  0
M  END
> <PUBCHEM_COMPOUND_CID>
7408474

> <PUBCHEM_CONFORMER_RMSD>
0.4

> <PUBCHEM_CONFORMER_DIVERSEORDER>
2
1

> <PUBCHEM_MMFF94_PARTIAL_CHARGES>
10
1 -0.57
11 0.37
14 0.37
2 -0.57
3 -0.73
4 -0.73
5 0.36
6 0.57
7 0.36
9 0.57

> <PUBCHEM_EFFECTIVE_ROTOR_COUNT>
0.8

> <PUBCHEM_PHARMACOPHORE_FEATURES>
5
1 1 acceptor
1 2 acceptor
1 3 donor
1 4 donor
6 3 4 5 6 7 9 rings

> <PUBCHEM_HEAVY_ATOM_COUNT>
9

> <PUBCHEM_ATOM_DEF_STEREO_COUNT>
1

> <PUBCHEM_ATOM_UDEF_STEREO_COUNT>
0

> <PUBCHEM_BOND_DEF_STEREO_COUNT>
0

> <PUBCHEM_BOND_UDEF_STEREO_COUNT>
0

> <PUBCHEM_ISOTOPIC_ATOM_COUNT>
0

> <PUBCHEM_COMPONENT_COUNT>
1

> <PUBCHEM_CACTVS_TAUTO_COUNT>
4

> <PUBCHEM_CONFORMER_ID>
00710B5A00000002

> <PUBCHEM_MMFF94_ENERGY>
28.0635

> <PUBCHEM_FEATURE_SELFOVERLAP>
25.38

> <PUBCHEM_SHAPE_FINGERPRINT>
12897270 3 18411134774736368183
16714656 1 18341335603430914542
16945 1 18338233872507368874
18185500 45 18266455588745756583
21040471 1 18124311614570406377
23552423 10 18262239911073317966
2748010 2 18339364041611697302
29004967 10 18041563645153557299
5084963 1 18201726179772449552

> <PUBCHEM_SHAPE_MULTIPOLES>
163.52
2.95
1.7
0.64
0.6
0.02
-0.04
-0.58
0.21
-0.6
0.02
0.01
0
-0.26

> <PUBCHEM_SHAPE_SELFOVERLAP>
328.086

> <PUBCHEM_SHAPE_VOLUME>
95.5

> <PUBCHEM_COORDINATE_TYPE>
2
5
10

$$$$
