7855578
  -OEChem-03112307083D

 26 26  0     1  0  0  0  0  0999 V2000
   -1.2112   -2.2743    0.6475 O   0  0  0  0  0  0  0  0  0  0  0  0
    2.3293    1.6947    0.3878 O   0  0  0  0  0  0  0  0  0  0  0  0
    0.2427    0.9317    0.9642 N   0  0  0  0  0  0  0  0  0  0  0  0
    0.8089   -1.4484   -0.0785 N   0  0  0  0  0  0  0  0  0  0  0  0
   -0.9176    0.1141    0.6499 C   0  0  1  0  0  0  0  0  0  0  0  0
   -1.7001    0.6396   -0.5435 C   0  0  0  0  0  0  0  0  0  0  0  0
    1.5311   -0.3326   -0.6694 C   0  0  1  0  0  0  0  0  0  0  0  0
   -0.4626   -1.3193    0.4473 C   0  0  0  0  0  0  0  0  0  0  0  0
    1.4494    0.8410    0.2946 C   0  0  0  0  0  0  0  0  0  0  0  0
   -2.9307   -0.2280   -0.8108 C   0  0  0  0  0  0  0  0  0  0  0  0
   -2.1137    2.0955   -0.3235 C   0  0  0  0  0  0  0  0  0  0  0  0
    2.9744   -0.7139   -0.9657 C   0  0  0  0  0  0  0  0  0  0  0  0
   -1.5400    0.1303    1.5536 H   0  0  0  0  0  0  0  0  0  0  0  0
   -1.0852    0.6140   -1.4505 H   0  0  0  0  0  0  0  0  0  0  0  0
    1.0268   -0.0568   -1.6009 H   0  0  0  0  0  0  0  0  0  0  0  0
    0.1158    1.7110    1.6029 H   0  0  0  0  0  0  0  0  0  0  0  0
    1.1331   -2.3900   -0.2785 H   0  0  0  0  0  0  0  0  0  0  0  0
   -3.5469   -0.3382    0.0880 H   0  0  0  0  0  0  0  0  0  0  0  0
   -3.5571    0.2211   -1.5898 H   0  0  0  0  0  0  0  0  0  0  0  0
   -2.6550   -1.2246   -1.1682 H   0  0  0  0  0  0  0  0  0  0  0  0
   -2.7121    2.2055    0.5875 H   0  0  0  0  0  0  0  0  0  0  0  0
   -2.7151    2.4582   -1.1643 H   0  0  0  0  0  0  0  0  0  0  0  0
   -1.2434    2.7548   -0.2433 H   0  0  0  0  0  0  0  0  0  0  0  0
    3.0197   -1.5763   -1.6393 H   0  0  0  0  0  0  0  0  0  0  0  0
    3.5119    0.1149   -1.4383 H   0  0  0  0  0  0  0  0  0  0  0  0
    3.5109   -0.9798   -0.0477 H   0  0  0  0  0  0  0  0  0  0  0  0
  1  8  2  0  0  0  0
  2  9  2  0  0  0  0
  3  5  1  0  0  0  0
  3  9  1  0  0  0  0
  3 16  1  0  0  0  0
  4  7  1  0  0  0  0
  4  8  1  0  0  0  0
  4 17  1  0  0  0  0
  5  6  1  0  0  0  0
  5  8  1  0  0  0  0
  5 13  1  0  0  0  0
  6 10  1  0  0  0  0
  6 11  1  0  0  0  0
  6 14  1  0  0  0  0
  7  9  1  0  0  0  0
  7 12  1  0  0  0  0
  7 15  1  0  0  0  0
 10 18  1  0  0  0  0
 10 19  1  0  0  0  0
 10 20  1  0  0  0  0
 11 21  1  0  0  0  0
 11 22  1  0  0  0  0
 11 23  1  0  0  0  0
 12 24  1  0  0  0  0
 12 25  1  0  0  0  0
 12 26  1  0  0  0  0
M  END
> <PUBCHEM_COMPOUND_CID>
7855578

> <PUBCHEM_CONFORMER_RMSD>
0.4

> <PUBCHEM_CONFORMER_DIVERSEORDER>
2
3
6
5
9
10
1
7
8
4

> <PUBCHEM_MMFF94_PARTIAL_CHARGES>
10
1 -0.57
16 0.37
17 0.37
2 -0.57
3 -0.73
4 -0.73
5 0.36
7 0.36
8 0.57
9 0.57

> <PUBCHEM_EFFECTIVE_ROTOR_COUNT>
1.8

> <PUBCHEM_PHARMACOPHORE_FEATURES>
6
1 1 acceptor
1 2 acceptor
1 3 donor
1 4 donor
3 6 10 11 hydrophobe
6 3 4 5 7 8 9 rings

> <PUBCHEM_HEAVY_ATOM_COUNT>
12

> <PUBCHEM_ATOM_DEF_STEREO_COUNT>
2

> <PUBCHEM_ATOM_UDEF_STEREO_COUNT>
0

> <PUBCHEM_BOND_DEF_STEREO_COUNT>
0

> <PUBCHEM_BOND_UDEF_STEREO_COUNT>
0

> <PUBCHEM_ISOTOPIC_ATOM_COUNT>
0

> <PUBCHEM_COMPONENT_COUNT>
1

> <PUBCHEM_CACTVS_TAUTO_COUNT>
4

> <PUBCHEM_CONFORMER_ID>
0077DDDA00000002

> <PUBCHEM_MMFF94_ENERGY>
36.9501

> <PUBCHEM_FEATURE_SELFOVERLAP>
30.454

> <PUBCHEM_SHAPE_FINGERPRINT>
11206711 2 18339088098573852717
12138202 97 18190727833500019438
12423570 1 11504185024660533842
12716758 59 18335423473700388794
12897270 3 18410284792514246229
15775835 57 18192437359554541949
16945 1 18408604751246888242
17844478 74 18262256489831333403
18185500 45 17475226904024475211
18534176 82 18190738837295856876
20201158 50 18272653454419286038
20653085 51 18341899545606372121
21040471 1 18261391117918404672
22802520 49 18340212980547215143
23211744 25 18338231553488708131
23402539 116 18193248975129246941
23419403 2 13608014105663324602
23552423 10 18194668281822214973
23559900 14 18269281163033508710
25 1 18048605823840265773
2748010 2 18195536023702658866
5084963 1 18272086080528184853
528886 8 18043817480797688381
549884 4 18125716794862984021
63268167 104 18051980212067018888

> <PUBCHEM_SHAPE_MULTIPOLES>
225.25
3.86
2.03
0.97
0.38
0.14
0.05
-0.68
1.48
-0.42
-0.37
0.04
0.04
0.49

> <PUBCHEM_SHAPE_SELFOVERLAP>
450.61

> <PUBCHEM_SHAPE_VOLUME>
132.1

> <PUBCHEM_COORDINATE_TYPE>
2
5
10

$$$$
