88879608
  -OEChem-03102308022D

 69 68  0     1  0  0  0  0  0999 V2000
    7.1962   -3.5950    0.0000 O   0  0  0  0  0  0  0  0  0  0  0  0
    5.4641   -3.5950    0.0000 O   0  0  0  0  0  0  0  0  0  0  0  0
    3.7320   -2.5950    0.0000 O   0  0  0  0  0  0  0  0  0  0  0  0
    2.8660   -1.0950    0.0000 O   0  0  0  0  0  0  0  0  0  0  0  0
    8.0622   -2.0950    0.0000 C   0  0  0  0  0  0  0  0  0  0  0  0
    8.9282   -2.5950    0.0000 C   0  0  0  0  0  0  0  0  0  0  0  0
    7.1962   -2.5950    0.0000 C   0  0  3  0  0  0  0  0  0  0  0  0
    9.7942   -2.0950    0.0000 C   0  0  0  0  0  0  0  0  0  0  0  0
   10.6603   -2.5950    0.0000 C   0  0  0  0  0  0  0  0  0  0  0  0
    6.3301   -2.0950    0.0000 C   0  0  0  0  0  0  0  0  0  0  0  0
   11.5263   -2.0950    0.0000 C   0  0  0  0  0  0  0  0  0  0  0  0
    5.4641   -2.5950    0.0000 C   0  0  3  0  0  0  0  0  0  0  0  0
   12.3923   -2.5950    0.0000 C   0  0  0  0  0  0  0  0  0  0  0  0
   13.2583   -2.0950    0.0000 C   0  0  0  0  0  0  0  0  0  0  0  0
    4.5981   -2.0950    0.0000 C   0  0  0  0  0  0  0  0  0  0  0  0
   14.1244   -2.5950    0.0000 C   0  0  0  0  0  0  0  0  0  0  0  0
   14.9904    1.9050    0.0000 C   0  0  0  0  0  0  0  0  0  0  0  0
   14.9904   -2.0950    0.0000 C   0  0  0  0  0  0  0  0  0  0  0  0
   14.1244    2.4050    0.0000 C   0  0  0  0  0  0  0  0  0  0  0  0
   14.9904    0.9050    0.0000 C   0  0  0  0  0  0  0  0  0  0  0  0
   14.9904   -1.0950    0.0000 C   0  0  0  0  0  0  0  0  0  0  0  0
   14.1244    3.4050    0.0000 C   0  0  0  0  0  0  0  0  0  0  0  0
   15.8564    0.4050    0.0000 C   0  0  0  0  0  0  0  0  0  0  0  0
   15.8564   -0.5950    0.0000 C   0  0  0  0  0  0  0  0  0  0  0  0
    2.8660   -2.0950    0.0000 C   0  0  0  0  0  0  0  0  0  0  0  0
   13.2583    3.9050    0.0000 C   0  0  0  0  0  0  0  0  0  0  0  0
    2.0000   -2.5950    0.0000 C   0  0  0  0  0  0  0  0  0  0  0  0
    8.4607   -1.6200    0.0000 H   0  0  0  0  0  0  0  0  0  0  0  0
    7.6636   -1.6200    0.0000 H   0  0  0  0  0  0  0  0  0  0  0  0
    8.5297   -3.0700    0.0000 H   0  0  0  0  0  0  0  0  0  0  0  0
    9.3267   -3.0700    0.0000 H   0  0  0  0  0  0  0  0  0  0  0  0
    6.6592   -2.9050    0.0000 H   0  0  0  0  0  0  0  0  0  0  0  0
   10.1928   -1.6200    0.0000 H   0  0  0  0  0  0  0  0  0  0  0  0
    9.3957   -1.6200    0.0000 H   0  0  0  0  0  0  0  0  0  0  0  0
   10.2617   -3.0700    0.0000 H   0  0  0  0  0  0  0  0  0  0  0  0
   11.0588   -3.0700    0.0000 H   0  0  0  0  0  0  0  0  0  0  0  0
    6.7287   -1.6200    0.0000 H   0  0  0  0  0  0  0  0  0  0  0  0
    5.9316   -1.6200    0.0000 H   0  0  0  0  0  0  0  0  0  0  0  0
   11.9248   -1.6200    0.0000 H   0  0  0  0  0  0  0  0  0  0  0  0
   11.1278   -1.6200    0.0000 H   0  0  0  0  0  0  0  0  0  0  0  0
    6.0010   -2.9050    0.0000 H   0  0  0  0  0  0  0  0  0  0  0  0
   11.9938   -3.0700    0.0000 H   0  0  0  0  0  0  0  0  0  0  0  0
   12.7908   -3.0700    0.0000 H   0  0  0  0  0  0  0  0  0  0  0  0
   13.6569   -1.6200    0.0000 H   0  0  0  0  0  0  0  0  0  0  0  0
   12.8598   -1.6200    0.0000 H   0  0  0  0  0  0  0  0  0  0  0  0
    4.9966   -1.6200    0.0000 H   0  0  0  0  0  0  0  0  0  0  0  0
    4.1996   -1.6200    0.0000 H   0  0  0  0  0  0  0  0  0  0  0  0
    7.7331   -3.9050    0.0000 H   0  0  0  0  0  0  0  0  0  0  0  0
    4.9272   -3.9050    0.0000 H   0  0  0  0  0  0  0  0  0  0  0  0
   14.1244   -3.2150    0.0000 H   0  0  0  0  0  0  0  0  0  0  0  0
   15.6010    1.7973    0.0000 H   0  0  0  0  0  0  0  0  0  0  0  0
   15.2024    2.4876    0.0000 H   0  0  0  0  0  0  0  0  0  0  0  0
   15.5273   -2.4050    0.0000 H   0  0  0  0  0  0  0  0  0  0  0  0
   13.5138    2.5127    0.0000 H   0  0  0  0  0  0  0  0  0  0  0  0
   13.9123    1.8224    0.0000 H   0  0  0  0  0  0  0  0  0  0  0  0
   14.3798    1.0127    0.0000 H   0  0  0  0  0  0  0  0  0  0  0  0
   14.7783    0.3224    0.0000 H   0  0  0  0  0  0  0  0  0  0  0  0
   14.7783   -0.5124    0.0000 H   0  0  0  0  0  0  0  0  0  0  0  0
   14.3798   -1.2027    0.0000 H   0  0  0  0  0  0  0  0  0  0  0  0
   14.7349    3.2973    0.0000 H   0  0  0  0  0  0  0  0  0  0  0  0
   14.3364    3.9876    0.0000 H   0  0  0  0  0  0  0  0  0  0  0  0
   16.3933    0.7150    0.0000 H   0  0  0  0  0  0  0  0  0  0  0  0
   16.3933   -0.9050    0.0000 H   0  0  0  0  0  0  0  0  0  0  0  0
   13.5683    4.4419    0.0000 H   0  0  0  0  0  0  0  0  0  0  0  0
   12.7214    4.2150    0.0000 H   0  0  0  0  0  0  0  0  0  0  0  0
   12.9483    3.3681    0.0000 H   0  0  0  0  0  0  0  0  0  0  0  0
    1.6900   -2.0581    0.0000 H   0  0  0  0  0  0  0  0  0  0  0  0
    1.4631   -2.9050    0.0000 H   0  0  0  0  0  0  0  0  0  0  0  0
    2.3100   -3.1319    0.0000 H   0  0  0  0  0  0  0  0  0  0  0  0
  1  7  1  0  0  0  0
  1 48  1  0  0  0  0
  2 12  1  0  0  0  0
  2 49  1  0  0  0  0
  3 15  1  0  0  0  0
  3 25  1  0  0  0  0
  4 25  2  0  0  0  0
  5  6  1  0  0  0  0
  5  7  1  0  0  0  0
  5 28  1  0  0  0  0
  5 29  1  0  0  0  0
  6  8  1  0  0  0  0
  6 30  1  0  0  0  0
  6 31  1  0  0  0  0
  7 10  1  0  0  0  0
  7 32  1  0  0  0  0
  8  9  1  0  0  0  0
  8 33  1  0  0  0  0
  8 34  1  0  0  0  0
  9 11  1  0  0  0  0
  9 35  1  0  0  0  0
  9 36  1  0  0  0  0
 10 12  1  0  0  0  0
 10 37  1  0  0  0  0
 10 38  1  0  0  0  0
 11 13  1  0  0  0  0
 11 39  1  0  0  0  0
 11 40  1  0  0  0  0
 12 15  1  0  0  0  0
 12 41  1  0  0  0  0
 13 14  1  0  0  0  0
 13 42  1  0  0  0  0
 13 43  1  0  0  0  0
 14 16  1  0  0  0  0
 14 44  1  0  0  0  0
 14 45  1  0  0  0  0
 15 46  1  0  0  0  0
 15 47  1  0  0  0  0
 16 18  2  0  0  0  0
 16 50  1  0  0  0  0
 17 19  1  0  0  0  0
 17 20  1  0  0  0  0
 17 51  1  0  0  0  0
 17 52  1  0  0  0  0
 18 21  1  0  0  0  0
 18 53  1  0  0  0  0
 19 22  1  0  0  0  0
 19 54  1  0  0  0  0
 19 55  1  0  0  0  0
 20 23  1  0  0  0  0
 20 56  1  0  0  0  0
 20 57  1  0  0  0  0
 21 24  1  0  0  0  0
 21 58  1  0  0  0  0
 21 59  1  0  0  0  0
 22 26  1  0  0  0  0
 22 60  1  0  0  0  0
 22 61  1  0  0  0  0
 23 24  2  0  0  0  0
 23 62  1  0  0  0  0
 24 63  1  0  0  0  0
 25 27  1  0  0  0  0
 26 64  1  0  0  0  0
 26 65  1  0  0  0  0
 26 66  1  0  0  0  0
 27 67  1  0  0  0  0
 27 68  1  0  0  0  0
 27 69  1  0  0  0  0
M  END
> <PUBCHEM_COMPOUND_CID>
88879608

> <PUBCHEM_COMPOUND_CANONICALIZED>
1

> <PUBCHEM_CACTVS_COMPLEXITY>
390

> <PUBCHEM_CACTVS_HBOND_ACCEPTOR>
4

> <PUBCHEM_CACTVS_HBOND_DONOR>
2

> <PUBCHEM_CACTVS_ROTATABLE_BOND>
19

> <PUBCHEM_CACTVS_SUBSKEYS>
AAADcfB4OAAAAAAAAAAAAAAAAAAAAAAAAAAAAAAAAAAAAAAAAAAAGgAACAAACBSggAICCAAABgCIACDSCAAAAAAgAAAICAAAAAgBEAIAAQACQAAFgAALAAPAwKAAAAAAAAAAAAAAAAAAAAAAAAAAAAAAAA==

> <PUBCHEM_IUPAC_OPENEYE_NAME>
[(12Z,15Z)-2,4-dihydroxyhenicosa-12,15-dienyl] acetate

> <PUBCHEM_IUPAC_CAS_NAME>
acetic acid [(12Z,15Z)-2,4-dihydroxyheneicosa-12,15-dienyl] ester

> <PUBCHEM_IUPAC_NAME_MARKUP>
[(12<I>Z</I>,15<I>Z</I>)-2,4-dihydroxyhenicosa-12,15-dienyl] acetate

> <PUBCHEM_IUPAC_NAME>
[(12Z,15Z)-2,4-dihydroxyhenicosa-12,15-dienyl] acetate

> <PUBCHEM_IUPAC_SYSTEMATIC_NAME>
[(12Z,15Z)-2,4-bis(oxidanyl)henicosa-12,15-dienyl] ethanoate

> <PUBCHEM_IUPAC_TRADITIONAL_NAME>
acetic acid [(12Z,15Z)-2,4-dihydroxyheneicosa-12,15-dienyl] ester

> <PUBCHEM_IUPAC_INCHI>
InChI=1S/C23H42O4/c1-3-4-5-6-7-8-9-10-11-12-13-14-15-16-17-18-22(25)19-23(26)20-27-21(2)24/h7-8,10-11,22-23,25-26H,3-6,9,12-20H2,1-2H3/b8-7-,11-10-

> <PUBCHEM_IUPAC_INCHIKEY>
GSWQTBYGARPWQP-NQLNTKRDSA-N

> <PUBCHEM_XLOGP3_AA>
6.5

> <PUBCHEM_EXACT_MASS>
382.30830982

> <PUBCHEM_MOLECULAR_FORMULA>
C23H42O4

> <PUBCHEM_MOLECULAR_WEIGHT>
382.6

> <PUBCHEM_OPENEYE_CAN_SMILES>
CCCCCC=CCC=CCCCCCCCC(CC(COC(=O)C)O)O

> <PUBCHEM_OPENEYE_ISO_SMILES>
CCCCC/C=C\C/C=C\CCCCCCCC(CC(COC(=O)C)O)O

> <PUBCHEM_CACTVS_TPSA>
66.8

> <PUBCHEM_MONOISOTOPIC_WEIGHT>
382.30830982

> <PUBCHEM_TOTAL_CHARGE>
0

> <PUBCHEM_HEAVY_ATOM_COUNT>
27

> <PUBCHEM_ATOM_DEF_STEREO_COUNT>
0

> <PUBCHEM_ATOM_UDEF_STEREO_COUNT>
2

> <PUBCHEM_BOND_DEF_STEREO_COUNT>
2

> <PUBCHEM_BOND_UDEF_STEREO_COUNT>
0

> <PUBCHEM_ISOTOPIC_ATOM_COUNT>
0

> <PUBCHEM_COMPONENT_COUNT>
1

> <PUBCHEM_CACTVS_TAUTO_COUNT>
-1

> <PUBCHEM_COORDINATE_TYPE>
1
5
255

> <PUBCHEM_BONDANNOTATIONS>
7  1  3
12  2  3

$$$$
