91064206
  -OEChem-03102308473D

 31 31  0     0  0  0  0  0  0999 V2000
    0.4292   -2.8760   -0.0762 O   0  0  0  0  0  0  0  0  0  0  0  0
   -0.4989    1.7807   -0.7470 O   0  0  0  0  0  0  0  0  0  0  0  0
    3.8845    0.3598    0.4679 O   0  0  0  0  0  0  0  0  0  0  0  0
   -0.0658   -0.5552   -0.4198 C   0  0  0  0  0  0  0  0  0  0  0  0
   -1.5012   -0.8882   -0.7416 C   0  0  0  0  0  0  0  0  0  0  0  0
    0.8319   -1.5743   -0.1019 C   0  0  0  0  0  0  0  0  0  0  0  0
    0.3639    0.7717   -0.4395 C   0  0  0  0  0  0  0  0  0  0  0  0
   -2.4336   -0.5485    0.3871 C   0  0  0  0  0  0  0  0  0  0  0  0
   -3.4848    0.2931    0.3671 C   0  0  0  0  0  0  0  0  0  0  0  0
    2.1593   -1.2667    0.1963 C   0  0  0  0  0  0  0  0  0  0  0  0
    1.6913    1.0794   -0.1414 C   0  0  0  0  0  0  0  0  0  0  0  0
    2.5891    0.0602    0.1765 C   0  0  0  0  0  0  0  0  0  0  0  0
   -3.8406    1.0375   -0.8924 C   0  0  0  0  0  0  0  0  0  0  0  0
   -4.3810    0.5898    1.5357 C   0  0  0  0  0  0  0  0  0  0  0  0
    4.2566    1.7367    0.4291 C   0  0  0  0  0  0  0  0  0  0  0  0
   -1.7577   -0.4226   -1.6961 H   0  0  0  0  0  0  0  0  0  0  0  0
   -1.6141   -1.9611   -0.9413 H   0  0  0  0  0  0  0  0  0  0  0  0
   -2.2271   -1.0658    1.3239 H   0  0  0  0  0  0  0  0  0  0  0  0
    2.8653   -2.0552    0.4454 H   0  0  0  0  0  0  0  0  0  0  0  0
    1.9734    2.1266   -0.1708 H   0  0  0  0  0  0  0  0  0  0  0  0
   -4.7506    0.6127   -1.3292 H   0  0  0  0  0  0  0  0  0  0  0  0
   -4.0428    2.0884   -0.6541 H   0  0  0  0  0  0  0  0  0  0  0  0
   -3.0714    1.0538   -1.6640 H   0  0  0  0  0  0  0  0  0  0  0  0
   -4.3322    1.6519    1.7963 H   0  0  0  0  0  0  0  0  0  0  0  0
   -5.4180    0.3342    1.2954 H   0  0  0  0  0  0  0  0  0  0  0  0
   -4.0912    0.0145    2.4212 H   0  0  0  0  0  0  0  0  0  0  0  0
    1.1857   -3.4380    0.1641 H   0  0  0  0  0  0  0  0  0  0  0  0
   -0.0271    2.6301   -0.7090 H   0  0  0  0  0  0  0  0  0  0  0  0
    5.3196    1.7911    0.6861 H   0  0  0  0  0  0  0  0  0  0  0  0
    3.7164    2.3213    1.1815 H   0  0  0  0  0  0  0  0  0  0  0  0
    4.1503    2.1545   -0.5778 H   0  0  0  0  0  0  0  0  0  0  0  0
  1  6  1  0  0  0  0
  1 27  1  0  0  0  0
  2  7  1  0  0  0  0
  2 28  1  0  0  0  0
  3 12  1  0  0  0  0
  3 15  1  0  0  0  0
  4  5  1  0  0  0  0
  4  6  2  0  0  0  0
  4  7  1  0  0  0  0
  5  8  1  0  0  0  0
  5 16  1  0  0  0  0
  5 17  1  0  0  0  0
  6 10  1  0  0  0  0
  7 11  2  0  0  0  0
  8  9  2  0  0  0  0
  8 18  1  0  0  0  0
  9 13  1  0  0  0  0
  9 14  1  0  0  0  0
 10 12  2  0  0  0  0
 10 19  1  0  0  0  0
 11 12  1  0  0  0  0
 11 20  1  0  0  0  0
 13 21  1  0  0  0  0
 13 22  1  0  0  0  0
 13 23  1  0  0  0  0
 14 24  1  0  0  0  0
 14 25  1  0  0  0  0
 14 26  1  0  0  0  0
 15 29  1  0  0  0  0
 15 30  1  0  0  0  0
 15 31  1  0  0  0  0
M  END
> <PUBCHEM_COMPOUND_CID>
91064206

> <PUBCHEM_CONFORMER_RMSD>
0.6

> <PUBCHEM_CONFORMER_DIVERSEORDER>
3
14
8
6
11
1
13
10
2
5
12
7
9
4

> <PUBCHEM_MMFF94_PARTIAL_CHARGES>
20
1 -0.53
10 -0.15
11 -0.15
12 0.08
13 0.14
14 0.14
15 0.28
18 0.15
19 0.15
2 -0.53
20 0.15
27 0.45
28 0.45
3 -0.36
4 -0.14
5 0.28
6 0.08
7 0.08
8 -0.29
9 -0.28

> <PUBCHEM_EFFECTIVE_ROTOR_COUNT>
3

> <PUBCHEM_PHARMACOPHORE_FEATURES>
5
1 1 donor
1 2 donor
1 3 acceptor
3 9 13 14 hydrophobe
6 4 6 7 10 11 12 rings

> <PUBCHEM_HEAVY_ATOM_COUNT>
15

> <PUBCHEM_ATOM_DEF_STEREO_COUNT>
0

> <PUBCHEM_ATOM_UDEF_STEREO_COUNT>
0

> <PUBCHEM_BOND_DEF_STEREO_COUNT>
0

> <PUBCHEM_BOND_UDEF_STEREO_COUNT>
0

> <PUBCHEM_ISOTOPIC_ATOM_COUNT>
0

> <PUBCHEM_COMPONENT_COUNT>
1

> <PUBCHEM_CACTVS_TAUTO_COUNT>
5

> <PUBCHEM_CONFORMER_ID>
056D878E00000003

> <PUBCHEM_MMFF94_ENERGY>
41.4662

> <PUBCHEM_FEATURE_SELFOVERLAP>
25.372

> <PUBCHEM_SHAPE_FINGERPRINT>
10219947 1 18408040701866144207
10382601 240 18336553715676931538
10465860 228 18271534104142358410
10980938 120 18410012109151116863
11132069 177 18334572460132149668
11471102 20 18338227180932406727
11471102 22 18187376423527401083
11543360 7 15410606047065406132
11769659 78 11963386362307511099
12251169 10 18041283257067303467
12346645 44 18343301470096974288
12382932 28 18335419075648700403
124424 183 17385716994153054477
13214271 11 18261669363248611335
13583140 156 16371824388192458500
13675066 3 18040152911552869769
13705890 14 9079112254510283098
14252887 29 18113909225349120787
15209294 21 18202559614055546000
15219456 202 18188769444651369565
15309172 13 18409727378430790814
15375358 24 18114455674407598677
15502708 68 18410572855607110074
15775835 57 18131634495376712515
16945 1 18338232665637389647
18186145 218 18343588442795354222
19049666 15 17679865904063567431
19784866 170 18260832583302412828
200 152 18272079540163405503
201361 129 18129952165044779987
20279233 1 17894633626312792991
204376 136 18411982498201376883
20645477 70 18265603287299466727
21524375 3 18270961370359048855
23402539 116 18200581601564637116
23557571 272 14549020992436719617
2748010 2 18191289491232585886
276578 36 18343026588042911938
293599 30 18339928216248255652
449060 23 11819265646740562345
53812653 166 18341889723126741192
633830 44 17988934352769400716
7364860 26 18128539267018380950

> <PUBCHEM_SHAPE_MULTIPOLES>
291.09
7.56
2.01
0.96
1.95
0.89
0.13
-3.97
2.39
-1.09
-0.13
0.93
-0.21
0.13

> <PUBCHEM_SHAPE_SELFOVERLAP>
597.08

> <PUBCHEM_SHAPE_VOLUME>
169.3

> <PUBCHEM_COORDINATE_TYPE>
2
5
10

$$$$
