9909740
  -OEChem-03092320443D

 68 68  0     1  0  0  0  0  0999 V2000
   -2.0634   -1.6431   -0.5364 O   0  0  0  0  0  0  0  0  0  0  0  0
    2.1459    0.4258   -1.8029 O   0  0  0  0  0  0  0  0  0  0  0  0
    0.3363    1.0026    2.5652 O   0  0  0  0  0  0  0  0  0  0  0  0
    2.3301    2.7727    1.0945 O   0  0  0  0  0  0  0  0  0  0  0  0
    0.0649   -0.7202   -1.3801 C   0  0  0  0  0  0  0  0  0  0  0  0
    0.6546   -2.0946   -1.7469 C   0  0  0  0  0  0  0  0  0  0  0  0
   -0.5939   -0.0769   -2.6155 C   0  0  0  0  0  0  0  0  0  0  0  0
   -0.9468   -0.8656   -0.2614 C   0  0  0  0  0  0  0  0  0  0  0  0
    1.2500    0.1809   -0.9899 C   0  0  0  0  0  0  0  0  0  0  0  0
   -0.8132   -0.2943    0.9497 C   0  0  0  0  0  0  0  0  0  0  0  0
    1.3386    0.7689    0.3832 C   0  0  0  0  0  0  0  0  0  0  0  0
    0.3547    0.5215    1.2689 C   0  0  0  0  0  0  0  0  0  0  0  0
    2.5009    1.6090    0.7302 C   0  0  0  0  0  0  0  0  0  0  0  0
    1.4369   -2.6550   -0.6035 C   0  0  0  0  0  0  0  0  0  0  0  0
   -1.2308    1.2256   -2.2544 C   0  0  0  0  0  0  0  0  0  0  0  0
   -1.8509   -0.4661    2.0340 C   0  0  0  0  0  0  0  0  0  0  0  0
    3.8817    0.9632    0.6467 C   0  0  1  0  0  0  0  0  0  0  0  0
    4.9695    1.9879    0.2904 C   0  0  0  0  0  0  0  0  0  0  0  0
    1.2423   -3.8282    0.0282 C   0  0  0  0  0  0  0  0  0  0  0  0
   -2.5351    1.5513   -2.3316 C   0  0  0  0  0  0  0  0  0  0  0  0
    4.1865    0.3003    1.9889 C   0  0  0  0  0  0  0  0  0  0  0  0
   -2.8225    0.6680    2.0420 C   0  0  0  0  0  0  0  0  0  0  0  0
    4.7207    2.6612   -1.0532 C   0  0  0  0  0  0  0  0  0  0  0  0
    0.1384   -4.7549   -0.4068 C   0  0  0  0  0  0  0  0  0  0  0  0
    2.0657   -4.3389    1.1764 C   0  0  0  0  0  0  0  0  0  0  0  0
   -3.1177    2.8833   -1.9523 C   0  0  0  0  0  0  0  0  0  0  0  0
   -3.5450    0.5457   -2.8165 C   0  0  0  0  0  0  0  0  0  0  0  0
   -4.1610    0.6055    1.9047 C   0  0  0  0  0  0  0  0  0  0  0  0
   -4.8483   -0.7225    1.7274 C   0  0  0  0  0  0  0  0  0  0  0  0
   -5.0892    1.7869    1.9211 C   0  0  0  0  0  0  0  0  0  0  0  0
    1.3551   -1.9830   -2.5866 H   0  0  0  0  0  0  0  0  0  0  0  0
   -0.1184   -2.7706   -2.1208 H   0  0  0  0  0  0  0  0  0  0  0  0
   -1.2867   -0.7843   -3.0766 H   0  0  0  0  0  0  0  0  0  0  0  0
    0.1567    0.1260   -3.3913 H   0  0  0  0  0  0  0  0  0  0  0  0
    2.2866   -2.0651   -0.2637 H   0  0  0  0  0  0  0  0  0  0  0  0
   -0.5508    2.0058   -1.9146 H   0  0  0  0  0  0  0  0  0  0  0  0
   -2.3403   -1.4391    1.9286 H   0  0  0  0  0  0  0  0  0  0  0  0
   -1.3819   -0.5377    3.0236 H   0  0  0  0  0  0  0  0  0  0  0  0
    3.8861    0.1838   -0.1217 H   0  0  0  0  0  0  0  0  0  0  0  0
   -2.0003   -1.9741   -1.4465 H   0  0  0  0  0  0  0  0  0  0  0  0
    5.0346    2.7613    1.0657 H   0  0  0  0  0  0  0  0  0  0  0  0
    5.9449    1.4873    0.2584 H   0  0  0  0  0  0  0  0  0  0  0  0
    5.1684   -0.1837    1.9718 H   0  0  0  0  0  0  0  0  0  0  0  0
    3.4396   -0.4648    2.2275 H   0  0  0  0  0  0  0  0  0  0  0  0
    4.1799    1.0318    2.8047 H   0  0  0  0  0  0  0  0  0  0  0  0
   -2.3890    1.6569    2.1889 H   0  0  0  0  0  0  0  0  0  0  0  0
    1.1386    1.5289    2.7169 H   0  0  0  0  0  0  0  0  0  0  0  0
    4.6549    1.9192   -1.8553 H   0  0  0  0  0  0  0  0  0  0  0  0
    3.8011    3.2529   -1.0545 H   0  0  0  0  0  0  0  0  0  0  0  0
    5.5485    3.3376   -1.2898 H   0  0  0  0  0  0  0  0  0  0  0  0
   -0.2440   -5.3161    0.4538 H   0  0  0  0  0  0  0  0  0  0  0  0
   -0.7293   -4.2430   -0.8281 H   0  0  0  0  0  0  0  0  0  0  0  0
    0.5176   -5.4783   -1.1356 H   0  0  0  0  0  0  0  0  0  0  0  0
    2.8711   -3.6436    1.4353 H   0  0  0  0  0  0  0  0  0  0  0  0
    2.5228   -5.3001    0.9202 H   0  0  0  0  0  0  0  0  0  0  0  0
    1.4415   -4.4718    2.0658 H   0  0  0  0  0  0  0  0  0  0  0  0
   -3.8702    2.7596   -1.1669 H   0  0  0  0  0  0  0  0  0  0  0  0
   -3.5885    3.3571   -2.8195 H   0  0  0  0  0  0  0  0  0  0  0  0
   -2.3495    3.5654   -1.5736 H   0  0  0  0  0  0  0  0  0  0  0  0
   -3.9996    0.0278   -1.9658 H   0  0  0  0  0  0  0  0  0  0  0  0
   -3.1478   -0.1933   -3.5143 H   0  0  0  0  0  0  0  0  0  0  0  0
   -4.3482    1.0556   -3.3617 H   0  0  0  0  0  0  0  0  0  0  0  0
   -4.2601   -1.4475    1.1607 H   0  0  0  0  0  0  0  0  0  0  0  0
   -5.7788   -0.5960    1.1616 H   0  0  0  0  0  0  0  0  0  0  0  0
   -5.1064   -1.1485    2.7021 H   0  0  0  0  0  0  0  0  0  0  0  0
   -5.6209    1.8690    0.9677 H   0  0  0  0  0  0  0  0  0  0  0  0
   -5.8235    1.6841    2.7263 H   0  0  0  0  0  0  0  0  0  0  0  0
   -4.5453    2.7237    2.0814 H   0  0  0  0  0  0  0  0  0  0  0  0
  1  8  1  0  0  0  0
  1 40  1  0  0  0  0
  2  9  2  0  0  0  0
  3 12  1  0  0  0  0
  3 47  1  0  0  0  0
  4 13  2  0  0  0  0
  5  6  1  0  0  0  0
  5  7  1  0  0  0  0
  5  8  1  0  0  0  0
  5  9  1  0  0  0  0
  6 14  1  0  0  0  0
  6 31  1  0  0  0  0
  6 32  1  0  0  0  0
  7 15  1  0  0  0  0
  7 33  1  0  0  0  0
  7 34  1  0  0  0  0
  8 10  2  0  0  0  0
  9 11  1  0  0  0  0
 10 12  1  0  0  0  0
 10 16  1  0  0  0  0
 11 12  2  0  0  0  0
 11 13  1  0  0  0  0
 13 17  1  0  0  0  0
 14 19  2  0  0  0  0
 14 35  1  0  0  0  0
 15 20  2  0  0  0  0
 15 36  1  0  0  0  0
 16 22  1  0  0  0  0
 16 37  1  0  0  0  0
 16 38  1  0  0  0  0
 17 18  1  0  0  0  0
 17 21  1  0  0  0  0
 17 39  1  0  0  0  0
 18 23  1  0  0  0  0
 18 41  1  0  0  0  0
 18 42  1  0  0  0  0
 19 24  1  0  0  0  0
 19 25  1  0  0  0  0
 20 26  1  0  0  0  0
 20 27  1  0  0  0  0
 21 43  1  0  0  0  0
 21 44  1  0  0  0  0
 21 45  1  0  0  0  0
 22 28  2  0  0  0  0
 22 46  1  0  0  0  0
 23 48  1  0  0  0  0
 23 49  1  0  0  0  0
 23 50  1  0  0  0  0
 24 51  1  0  0  0  0
 24 52  1  0  0  0  0
 24 53  1  0  0  0  0
 25 54  1  0  0  0  0
 25 55  1  0  0  0  0
 25 56  1  0  0  0  0
 26 57  1  0  0  0  0
 26 58  1  0  0  0  0
 26 59  1  0  0  0  0
 27 60  1  0  0  0  0
 27 61  1  0  0  0  0
 27 62  1  0  0  0  0
 28 29  1  0  0  0  0
 28 30  1  0  0  0  0
 29 63  1  0  0  0  0
 29 64  1  0  0  0  0
 29 65  1  0  0  0  0
 30 66  1  0  0  0  0
 30 67  1  0  0  0  0
 30 68  1  0  0  0  0
M  END
> <PUBCHEM_COMPOUND_CID>
9909740

> <PUBCHEM_CONFORMER_RMSD>
1

> <PUBCHEM_CONFORMER_DIVERSEORDER>
1
129
44
156
25
102
149
42
89
83
61
77
20
36
53
106
70
80
55
58
29
90
119
15
151
6
82
121
115
64
95
76
27
105
104
117
46
52
69
128
98
91
43
135
148
56
112
136
66
81
157
146
71
126
22
37
118
144
150
60
86
110
139
101
155
92
48
103
78
47
100
145
125
14
154
13
85
137
114
51
133
131
93
99
130
49
142
45
50
127
134
23
33
143
120
67
74
109
152
113
65
68
40
26
12
63
158
153
7
116
108
123
32
107
54
75
72
140
97
31
96
79
9
30
124
34
39
138
88
73
94
35
84
10
21
38
62
16
87
19
111
18
41
141
24
28
11
132
3
147
8
59
57
5
2
17
122
4

> <PUBCHEM_MMFF94_PARTIAL_CHARGES>
32
1 -0.53
10 -0.14
11 0.03
12 0.08
13 0.49
14 -0.29
15 -0.29
16 0.28
17 0.06
19 -0.28
2 -0.57
20 -0.28
22 -0.29
24 0.14
25 0.14
26 0.14
27 0.14
28 -0.28
29 0.14
3 -0.53
30 0.14
35 0.15
36 0.15
4 -0.57
40 0.45
46 0.15
47 0.45
5 0.2
6 0.14
7 0.14
8 -0.06
9 0.49

> <PUBCHEM_EFFECTIVE_ROTOR_COUNT>
9.2

> <PUBCHEM_PHARMACOPHORE_FEATURES>
10
1 1 donor
1 2 acceptor
1 21 hydrophobe
1 23 hydrophobe
1 3 donor
1 4 acceptor
3 19 24 25 hydrophobe
3 20 26 27 hydrophobe
3 28 29 30 hydrophobe
6 5 8 9 10 11 12 rings

> <PUBCHEM_HEAVY_ATOM_COUNT>
30

> <PUBCHEM_ATOM_DEF_STEREO_COUNT>
0

> <PUBCHEM_ATOM_UDEF_STEREO_COUNT>
1

> <PUBCHEM_BOND_DEF_STEREO_COUNT>
0

> <PUBCHEM_BOND_UDEF_STEREO_COUNT>
0

> <PUBCHEM_ISOTOPIC_ATOM_COUNT>
0

> <PUBCHEM_COMPONENT_COUNT>
1

> <PUBCHEM_CACTVS_TAUTO_COUNT>
19

> <PUBCHEM_CONFORMER_ID>
009735EC00000001

> <PUBCHEM_MMFF94_ENERGY>
61.042

> <PUBCHEM_FEATURE_SELFOVERLAP>
50.748

> <PUBCHEM_SHAPE_FINGERPRINT>
10032420 55 17916859248788169315
11578080 2 17899151424432287245
12156800 1 16227461637911348595
12592029 89 18194651857719660198
12788726 201 17320107112389127102
133893 2 18127958720589001702
13583140 156 18127701439516367441
15420108 30 17467106315143272941
15775530 1 18042402422333706839
17980427 23 17607828380302351619
17980427 26 18200326398559932615
1813 80 11674875615217721418
18915476 22 18264766571492563899
20600515 1 17401762424634911759
21033648 29 18044683948486921601
21120745 212 17112149979746959940
229495 10 18268714913748281205
23419403 2 17973166127835270483
244849 19 17972598792952231677
3759504 43 18056493952523645208
394222 165 18057581210493830902
4058900 60 18196683798073138952
469060 322 18337948017376199165
53917941 68 16558458764292460465
59755656 520 18202009871247664740
9981440 41 18190435264670581012

> <PUBCHEM_SHAPE_MULTIPOLES>
593.91
8.17
4.41
3.11
1.36
6.06
-0.61
-6.89
4.03
-3.73
-0.74
3.09
-1.18
0.86

> <PUBCHEM_SHAPE_SELFOVERLAP>
1206.328

> <PUBCHEM_SHAPE_VOLUME>
344.4

> <PUBCHEM_COORDINATE_TYPE>
2
5
10

$$$$
