99489
  -OEChem-03112307533D

 34 35  0     1  0  0  0  0  0999 V2000
   -0.7100   -0.8073   -0.8955 O   0  0  0  0  0  0  0  0  0  0  0  0
   -3.5893    2.0069    0.0213 O   0  0  0  0  0  0  0  0  0  0  0  0
   -3.6981   -0.5866    1.2517 O   0  0  0  0  0  0  0  0  0  0  0  0
    0.5981    0.6537    0.4367 O   0  0  0  0  0  0  0  0  0  0  0  0
   -0.8723    2.8448   -0.5182 O   0  0  0  0  0  0  0  0  0  0  0  0
   -0.8343   -3.4330   -0.1589 O   0  0  0  0  0  0  0  0  0  0  0  0
   -2.4397    1.1928    0.2646 C   0  0  1  0  0  0  0  0  0  0  0  0
   -2.8565   -0.2744    0.1442 C   0  0  1  0  0  0  0  0  0  0  0  0
   -1.3616    1.5310   -0.7631 C   0  0  2  0  0  0  0  0  0  0  0  0
   -1.6321   -1.1995    0.1277 C   0  0  1  0  0  0  0  0  0  0  0  0
   -0.2126    0.5221   -0.7295 C   0  0  2  0  0  0  0  0  0  0  0  0
   -2.0142   -2.6510   -0.1495 C   0  0  0  0  0  0  0  0  0  0  0  0
    1.9244    0.3460    0.2996 C   0  0  0  0  0  0  0  0  0  0  0  0
    2.2985   -0.9336   -0.0980 C   0  0  0  0  0  0  0  0  0  0  0  0
    2.8880    1.3149    0.5599 C   0  0  0  0  0  0  0  0  0  0  0  0
    3.6504   -1.2476   -0.2368 C   0  0  0  0  0  0  0  0  0  0  0  0
    4.2401    1.0010    0.4211 C   0  0  0  0  0  0  0  0  0  0  0  0
    4.6212   -0.2803    0.0227 C   0  0  0  0  0  0  0  0  0  0  0  0
   -2.0971    1.4276    1.2800 H   0  0  0  0  0  0  0  0  0  0  0  0
   -3.4450   -0.4157   -0.7717 H   0  0  0  0  0  0  0  0  0  0  0  0
   -1.8173    1.5344   -1.7610 H   0  0  0  0  0  0  0  0  0  0  0  0
   -1.1140   -1.1695    1.0955 H   0  0  0  0  0  0  0  0  0  0  0  0
    0.4135    0.7372   -1.6067 H   0  0  0  0  0  0  0  0  0  0  0  0
   -2.4967   -2.7596   -1.1265 H   0  0  0  0  0  0  0  0  0  0  0  0
   -2.6849   -3.0438    0.6202 H   0  0  0  0  0  0  0  0  0  0  0  0
   -4.2070    1.8732    0.7596 H   0  0  0  0  0  0  0  0  0  0  0  0
   -4.5267   -0.0904    1.1434 H   0  0  0  0  0  0  0  0  0  0  0  0
   -0.4209    2.8373    0.3432 H   0  0  0  0  0  0  0  0  0  0  0  0
   -0.2684   -3.1007   -0.8765 H   0  0  0  0  0  0  0  0  0  0  0  0
    1.5641   -1.7086   -0.2863 H   0  0  0  0  0  0  0  0  0  0  0  0
    2.5954    2.3141    0.8700 H   0  0  0  0  0  0  0  0  0  0  0  0
    3.9475   -2.2466   -0.5425 H   0  0  0  0  0  0  0  0  0  0  0  0
    4.9959    1.7542    0.6233 H   0  0  0  0  0  0  0  0  0  0  0  0
    5.6740   -0.5251   -0.0842 H   0  0  0  0  0  0  0  0  0  0  0  0
  1 10  1  0  0  0  0
  1 11  1  0  0  0  0
  2  7  1  0  0  0  0
  2 26  1  0  0  0  0
  3  8  1  0  0  0  0
  3 27  1  0  0  0  0
  4 11  1  0  0  0  0
  4 13  1  0  0  0  0
  5  9  1  0  0  0  0
  5 28  1  0  0  0  0
  6 12  1  0  0  0  0
  6 29  1  0  0  0  0
  7  8  1  0  0  0  0
  7  9  1  0  0  0  0
  7 19  1  0  0  0  0
  8 10  1  0  0  0  0
  8 20  1  0  0  0  0
  9 11  1  0  0  0  0
  9 21  1  0  0  0  0
 10 12  1  0  0  0  0
 10 22  1  0  0  0  0
 11 23  1  0  0  0  0
 12 24  1  0  0  0  0
 12 25  1  0  0  0  0
 13 14  2  0  0  0  0
 13 15  1  0  0  0  0
 14 16  1  0  0  0  0
 14 30  1  0  0  0  0
 15 17  2  0  0  0  0
 15 31  1  0  0  0  0
 16 18  2  0  0  0  0
 16 32  1  0  0  0  0
 17 18  1  0  0  0  0
 17 33  1  0  0  0  0
 18 34  1  0  0  0  0
M  END
> <PUBCHEM_COMPOUND_CID>
99489

> <PUBCHEM_CONFORMER_RMSD>
0.6

> <PUBCHEM_CONFORMER_DIVERSEORDER>
1
38
36
28
9
39
22
41
16
6
32
12
40
42
24
3
21
7
37
27
30
11
19
17
33
8
5
26
23
2
15
18
10
34
31
4
20
25
29
14
35
13

> <PUBCHEM_MMFF94_PARTIAL_CHARGES>
27
1 -0.56
10 0.28
11 0.56
12 0.28
13 0.08
14 -0.15
15 -0.15
16 -0.15
17 -0.15
18 -0.15
2 -0.68
26 0.4
27 0.4
28 0.4
29 0.4
3 -0.68
30 0.15
31 0.15
32 0.15
33 0.15
34 0.15
4 -0.36
5 -0.68
6 -0.68
7 0.28
8 0.28
9 0.28

> <PUBCHEM_EFFECTIVE_ROTOR_COUNT>
4.2

> <PUBCHEM_PHARMACOPHORE_FEATURES>
12
1 1 acceptor
1 2 acceptor
1 2 donor
1 3 acceptor
1 3 donor
1 4 acceptor
1 5 acceptor
1 5 donor
1 6 acceptor
1 6 donor
6 1 7 8 9 10 11 rings
6 13 14 15 16 17 18 rings

> <PUBCHEM_HEAVY_ATOM_COUNT>
18

> <PUBCHEM_ATOM_DEF_STEREO_COUNT>
5

> <PUBCHEM_ATOM_UDEF_STEREO_COUNT>
0

> <PUBCHEM_BOND_DEF_STEREO_COUNT>
0

> <PUBCHEM_BOND_UDEF_STEREO_COUNT>
0

> <PUBCHEM_ISOTOPIC_ATOM_COUNT>
0

> <PUBCHEM_COMPONENT_COUNT>
1

> <PUBCHEM_CACTVS_TAUTO_COUNT>
1

> <PUBCHEM_CONFORMER_ID>
000184A100000001

> <PUBCHEM_MMFF94_ENERGY>
58.2648

> <PUBCHEM_FEATURE_SELFOVERLAP>
60.954

> <PUBCHEM_SHAPE_FINGERPRINT>
10608611 8 18341324548633708440
10616163 171 18339643459811178862
1100329 8 15025554141428772937
11132069 177 18338509850210809880
11552529 35 17773878781886148746
12173636 292 18337666395743158300
12251169 10 18340772631944589025
12500047 106 18411975854119137000
12553582 1 17904773523722369278
12633257 1 18201725063091690906
12969540 114 18116972439412547549
13004483 165 17840568611739470103
15219456 202 18342457024013895572
15309172 13 18339928108404302145
16945 1 18266464398140425189
17804303 29 18339648845541379918
17834074 16 18411419505757160074
1813 80 17386007320672143238
20510252 161 18343303630671616545
20871998 184 18408045095923571701
23402539 116 18343012320683761911
23557571 272 18270971236378891388
23559900 14 18270671103747930608
2748010 2 18265350421326423591
2838139 119 14979126739466337537
5104073 3 18410571765191644632
58807428 26 18265906765435579403
598444 67 18341052895761660407
69090 78 18411412882490341199
81228 2 18193540380181096027
8809292 202 18412263930803609394
9709674 26 18343865519947548302

> <PUBCHEM_SHAPE_MULTIPOLES>
335.22
7.52
2.8
0.82
5.73
1.16
-0.02
-0.48
-1.37
-2.13
0.34
-0.24
-0.07
0.47

> <PUBCHEM_SHAPE_SELFOVERLAP>
699.967

> <PUBCHEM_SHAPE_VOLUME>
187.3

> <PUBCHEM_COORDINATE_TYPE>
2
5
10

$$$$
