44611569
  -OEChem-08202305453D

 24 25  0     0  0  0  0  0  0999 V2000
    2.9158    0.8286    0.1715 O   0  0  0  0  0  0  0  0  0  0  0  0
   -0.4915    2.3020   -0.1194 O   0  0  0  0  0  0  0  0  0  0  0  0
   -4.2717   -0.4872   -0.9222 O   0  0  0  0  0  0  0  0  0  0  0  0
    0.8499    0.2406    1.3342 C   0  0  0  0  0  0  0  0  0  0  0  0
   -0.5047    0.0614    0.7324 C   0  0  0  0  0  0  0  0  0  0  0  0
    1.9874   -0.1355    0.4071 C   0  0  0  0  0  0  0  0  0  0  0  0
   -1.1165    1.1006    0.0313 C   0  0  0  0  0  0  0  0  0  0  0  0
   -1.1587   -1.1622    0.8772 C   0  0  0  0  0  0  0  0  0  0  0  0
    2.3014   -1.2864   -0.2777 C   0  0  0  0  0  0  0  0  0  0  0  0
   -2.3824    0.9163   -0.5247 C   0  0  0  0  0  0  0  0  0  0  0  0
   -2.4248   -1.3464    0.3215 C   0  0  0  0  0  0  0  0  0  0  0  0
   -3.0366   -0.3070   -0.3796 C   0  0  0  0  0  0  0  0  0  0  0  0
    3.4998   -1.0120   -0.9789 C   0  0  0  0  0  0  0  0  0  0  0  0
    3.8326    0.2872   -0.6728 C   0  0  0  0  0  0  0  0  0  0  0  0
    0.9814    1.2738    1.6802 H   0  0  0  0  0  0  0  0  0  0  0  0
    0.9366   -0.3718    2.2419 H   0  0  0  0  0  0  0  0  0  0  0  0
   -0.6942   -1.9813    1.4199 H   0  0  0  0  0  0  0  0  0  0  0  0
    1.7412   -2.2104   -0.2737 H   0  0  0  0  0  0  0  0  0  0  0  0
   -2.8603    1.7256   -1.0715 H   0  0  0  0  0  0  0  0  0  0  0  0
   -2.9293   -2.3017    0.4375 H   0  0  0  0  0  0  0  0  0  0  0  0
    4.0521   -1.6778   -1.6261 H   0  0  0  0  0  0  0  0  0  0  0  0
    4.6462    0.9377   -0.9586 H   0  0  0  0  0  0  0  0  0  0  0  0
   -1.0651    2.8968   -0.6321 H   0  0  0  0  0  0  0  0  0  0  0  0
   -4.5423    0.3326   -1.3703 H   0  0  0  0  0  0  0  0  0  0  0  0
  1  6  1  0  0  0  0
  1 14  1  0  0  0  0
  2  7  1  0  0  0  0
  2 23  1  0  0  0  0
  3 12  1  0  0  0  0
  3 24  1  0  0  0  0
  4  5  1  0  0  0  0
  4  6  1  0  0  0  0
  4 15  1  0  0  0  0
  4 16  1  0  0  0  0
  5  7  2  0  0  0  0
  5  8  1  0  0  0  0
  6  9  2  0  0  0  0
  7 10  1  0  0  0  0
  8 11  2  0  0  0  0
  8 17  1  0  0  0  0
  9 13  1  0  0  0  0
  9 18  1  0  0  0  0
 10 12  2  0  0  0  0
 10 19  1  0  0  0  0
 11 12  1  0  0  0  0
 11 20  1  0  0  0  0
 13 14  2  0  0  0  0
 13 21  1  0  0  0  0
 14 22  1  0  0  0  0
M  END
> <PUBCHEM_COMPOUND_CID>
44611569

> <PUBCHEM_CONFORMER_RMSD>
0.6

> <PUBCHEM_CONFORMER_DIVERSEORDER>
1
9
6
12
7
10
4
11
13
8
5
2
3

> <PUBCHEM_MMFF94_PARTIAL_CHARGES>
22
1 -0.28
10 -0.15
11 -0.15
12 0.08
13 -0.15
14 -0.01
17 0.15
18 0.15
19 0.15
2 -0.53
20 0.15
21 0.15
22 0.15
23 0.45
24 0.45
3 -0.53
4 0.32
5 -0.14
6 -0.04
7 0.08
8 -0.15
9 -0.15

> <PUBCHEM_EFFECTIVE_ROTOR_COUNT>
2

> <PUBCHEM_PHARMACOPHORE_FEATURES>
5
1 1 acceptor
1 2 donor
1 3 donor
5 1 6 9 13 14 rings
6 5 7 8 10 11 12 rings

> <PUBCHEM_HEAVY_ATOM_COUNT>
14

> <PUBCHEM_ATOM_DEF_STEREO_COUNT>
0

> <PUBCHEM_ATOM_UDEF_STEREO_COUNT>
0

> <PUBCHEM_BOND_DEF_STEREO_COUNT>
0

> <PUBCHEM_BOND_UDEF_STEREO_COUNT>
0

> <PUBCHEM_ISOTOPIC_ATOM_COUNT>
0

> <PUBCHEM_COMPONENT_COUNT>
1

> <PUBCHEM_CACTVS_TAUTO_COUNT>
9

> <PUBCHEM_CONFORMER_ID>
02A8B7F100000001

> <PUBCHEM_MMFF94_ENERGY>
23.3945

> <PUBCHEM_FEATURE_SELFOVERLAP>
25.372

> <PUBCHEM_SHAPE_FINGERPRINT>
10465860 71 18333731342506177293
11769659 78 16486678273397179751
12251169 10 10087632698213322218
12897270 3 18408890633213375074
13299463 15 18343022155599732770
14911166 2 18261102002885983983
15775835 57 16008748017706910414
16945 1 18259703389102699025
17134986 127 17323511887045666005
17804303 29 10591501515408154176
18186145 218 17821729420546990013
19422 9 15051746295504457290
200 152 17703791401305812814
20201158 50 18341896290094982314
20279233 1 18343017813577765642
20281407 28 17918273160005148603
20361792 2 15985098587803321624
20645476 183 17095239241782809851
20871999 31 18335416859767244805
21501502 16 18195811769192912322
22169311 14 8646767790100214020
22213442 358 18266180719539426011
22445834 79 13182746909384636772
22802520 49 18339367366048272786
228727 97 17894911797847931529
23402539 116 18261946367475564220
23419403 2 10884540180741542843
23557571 272 18042977660193823698
23559900 14 18334855031095537258
27216 239 12181286529023713574
2748010 2 17827349196844898931
353137 74 18113616746655713049
4028521 119 17894629240460113708
465052 167 15266776745393221925
5262128 65 18264510454377400164
7364860 26 18053379087490407569
8030462 33 17822578213807086874
81228 2 18336829697374984257

> <PUBCHEM_SHAPE_MULTIPOLES>
270.51
6.67
1.55
1.04
1.25
0.4
0.11
-1.29
-2.77
-0.31
-0.05
0.07
-0.1
0.37

> <PUBCHEM_SHAPE_SELFOVERLAP>
585.101

> <PUBCHEM_SHAPE_VOLUME>
149.6

> <PUBCHEM_COORDINATE_TYPE>
2
5
10

$$$$
