147394
  -OEChem-08112308232D

 57 60  0     1  0  0  0  0  0999 V2000
    5.1350   -1.8696    0.0000 O   0  0  0  0  0  0  0  0  0  0  0  0
    6.8671   -1.8696    0.0000 O   0  0  0  0  0  0  0  0  0  0  0  0
    5.1350   -4.8696    0.0000 O   0  0  0  0  0  0  0  0  0  0  0  0
    3.4030   -3.8696    0.0000 O   0  0  0  0  0  0  0  0  0  0  0  0
    6.8671   -3.8696    0.0000 O   0  0  0  0  0  0  0  0  0  0  0  0
    2.5369   -2.3696    0.0000 O   0  0  0  0  0  0  0  0  0  0  0  0
    8.6230    1.1930    0.0000 O   0  0  0  0  0  0  0  0  0  0  0  0
    5.1208    1.2096    0.0000 O   0  0  0  0  0  0  0  0  0  0  0  0
    6.0308    2.7030    0.0000 O   0  0  0  0  0  0  0  0  0  0  0  0
   12.0987    4.1796    0.0000 O   0  0  0  0  0  0  0  0  0  0  0  0
   12.0910    2.1796    0.0000 O   0  0  0  0  0  0  0  0  0  0  0  0
    5.1350   -3.8696    0.0000 C   0  0  1  0  0  0  0  0  0  0  0  0
    4.2690   -3.3696    0.0000 C   0  0  1  0  0  0  0  0  0  0  0  0
    6.0010   -3.3696    0.0000 C   0  0  2  0  0  0  0  0  0  0  0  0
    4.2690   -2.3696    0.0000 C   0  0  1  0  0  0  0  0  0  0  0  0
    6.0010   -2.3696    0.0000 C   0  0  1  0  0  0  0  0  0  0  0  0
    3.4030   -1.8696    0.0000 C   0  0  0  0  0  0  0  0  0  0  0  0
    6.8671   -0.8696    0.0000 C   0  0  0  0  0  0  0  0  0  0  0  0
    8.6269    2.1929    0.0000 C   0  0  1  0  0  0  0  0  0  0  0  0
    7.7628    2.6963    0.0000 C   0  0  0  0  0  0  0  0  0  0  0  0
    7.7551    0.6963    0.0000 C   0  0  0  0  0  0  0  0  0  0  0  0
    6.8910    1.1996    0.0000 C   0  0  0  0  0  0  0  0  0  0  0  0
    7.7671   -0.3453    0.0000 C   0  0  0  0  0  0  0  0  0  0  0  0
    6.8948    2.1996    0.0000 C   0  0  0  0  0  0  0  0  0  0  0  0
    5.9670   -0.3453    0.0000 C   0  0  0  0  0  0  0  0  0  0  0  0
    5.9790    0.6963    0.0000 C   0  0  0  0  0  0  0  0  0  0  0  0
    9.4948    2.6896    0.0000 C   0  0  0  0  0  0  0  0  0  0  0  0
   10.3589    2.1863    0.0000 C   0  0  0  0  0  0  0  0  0  0  0  0
    9.4987    3.6896    0.0000 C   0  0  0  0  0  0  0  0  0  0  0  0
   11.2269    2.6829    0.0000 C   0  0  0  0  0  0  0  0  0  0  0  0
   10.3666    4.1862    0.0000 C   0  0  0  0  0  0  0  0  0  0  0  0
   11.2307    3.6829    0.0000 C   0  0  0  0  0  0  0  0  0  0  0  0
   12.1025    5.1796    0.0000 C   0  0  0  0  0  0  0  0  0  0  0  0
    4.5981   -4.1796    0.0000 H   0  0  0  0  0  0  0  0  0  0  0  0
    4.2690   -3.9896    0.0000 H   0  0  0  0  0  0  0  0  0  0  0  0
    6.0010   -3.9896    0.0000 H   0  0  0  0  0  0  0  0  0  0  0  0
    4.2690   -1.7496    0.0000 H   0  0  0  0  0  0  0  0  0  0  0  0
    6.5380   -2.6796    0.0000 H   0  0  0  0  0  0  0  0  0  0  0  0
    3.8015   -1.3946    0.0000 H   0  0  0  0  0  0  0  0  0  0  0  0
    3.0044   -1.3946    0.0000 H   0  0  0  0  0  0  0  0  0  0  0  0
    4.5981   -5.1796    0.0000 H   0  0  0  0  0  0  0  0  0  0  0  0
    3.4030   -4.4896    0.0000 H   0  0  0  0  0  0  0  0  0  0  0  0
    6.8671   -4.4896    0.0000 H   0  0  0  0  0  0  0  0  0  0  0  0
    8.6293    2.8129    0.0000 H   0  0  0  0  0  0  0  0  0  0  0  0
    8.1632    3.1697    0.0000 H   0  0  0  0  0  0  0  0  0  0  0  0
    7.3661    3.1728    0.0000 H   0  0  0  0  0  0  0  0  0  0  0  0
    8.3064   -0.6511    0.0000 H   0  0  0  0  0  0  0  0  0  0  0  0
    5.4277   -0.6511    0.0000 H   0  0  0  0  0  0  0  0  0  0  0  0
    2.0000   -2.0596    0.0000 H   0  0  0  0  0  0  0  0  0  0  0  0
   10.3565    1.5663    0.0000 H   0  0  0  0  0  0  0  0  0  0  0  0
    8.9630    4.0017    0.0000 H   0  0  0  0  0  0  0  0  0  0  0  0
   10.3690    4.8062    0.0000 H   0  0  0  0  0  0  0  0  0  0  0  0
    4.5792    0.9079    0.0000 H   0  0  0  0  0  0  0  0  0  0  0  0
   12.6291    2.4875    0.0000 H   0  0  0  0  0  0  0  0  0  0  0  0
   12.7225    5.1772    0.0000 H   0  0  0  0  0  0  0  0  0  0  0  0
   12.1049    5.7996    0.0000 H   0  0  0  0  0  0  0  0  0  0  0  0
   11.4825    5.1819    0.0000 H   0  0  0  0  0  0  0  0  0  0  0  0
  1 15  1  0  0  0  0
  1 16  1  0  0  0  0
 16  2  1  1  0  0  0
  2 18  1  0  0  0  0
 12  3  1  1  0  0  0
  3 41  1  0  0  0  0
 13  4  1  6  0  0  0
  4 42  1  0  0  0  0
 14  5  1  6  0  0  0
  5 43  1  0  0  0  0
  6 17  1  0  0  0  0
  6 49  1  0  0  0  0
  7 19  1  0  0  0  0
  7 21  1  0  0  0  0
  8 26  1  0  0  0  0
  8 53  1  0  0  0  0
  9 24  2  0  0  0  0
 10 32  1  0  0  0  0
 10 33  1  0  0  0  0
 11 30  1  0  0  0  0
 11 54  1  0  0  0  0
 12 13  1  0  0  0  0
 12 14  1  0  0  0  0
 12 34  1  0  0  0  0
 13 15  1  0  0  0  0
 13 35  1  0  0  0  0
 14 16  1  0  0  0  0
 14 36  1  0  0  0  0
 15 17  1  1  0  0  0
 15 37  1  0  0  0  0
 16 38  1  0  0  0  0
 17 39  1  0  0  0  0
 17 40  1  0  0  0  0
 18 23  1  0  0  0  0
 18 25  2  0  0  0  0
 19 20  1  0  0  0  0
 19 27  1  1  0  0  0
 19 44  1  0  0  0  0
 20 24  1  0  0  0  0
 20 45  1  0  0  0  0
 20 46  1  0  0  0  0
 21 22  1  0  0  0  0
 21 23  2  0  0  0  0
 22 24  1  0  0  0  0
 22 26  2  0  0  0  0
 23 47  1  0  0  0  0
 25 26  1  0  0  0  0
 25 48  1  0  0  0  0
 27 28  2  0  0  0  0
 27 29  1  0  0  0  0
 28 30  1  0  0  0  0
 28 50  1  0  0  0  0
 29 31  2  0  0  0  0
 29 51  1  0  0  0  0
 30 32  2  0  0  0  0
 31 32  1  0  0  0  0
 31 52  1  0  0  0  0
 33 55  1  0  0  0  0
 33 56  1  0  0  0  0
 33 57  1  0  0  0  0
M  END
> <PUBCHEM_COMPOUND_CID>
147394

> <PUBCHEM_COMPOUND_CANONICALIZED>
1

> <PUBCHEM_CACTVS_COMPLEXITY>
677

> <PUBCHEM_CACTVS_HBOND_ACCEPTOR>
11

> <PUBCHEM_CACTVS_HBOND_DONOR>
6

> <PUBCHEM_CACTVS_ROTATABLE_BOND>
5

> <PUBCHEM_CACTVS_SUBSKEYS>
AAADceB4PAAAAAAAAAAAAAAAAAAAAAAAAAA0aIEAAAAAAACRQAAAGgAACAAADBSwmAMyDoAABgCIAqBSAAACCAAkIAAIiAEGiMgdNzaGNRqieWOl4BUPuQfI7PzOIAABCAAIQABAAAIQABCAAAAAAAAAAA==

> <PUBCHEM_IUPAC_OPENEYE_NAME>
(2S)-5-hydroxy-2-(3-hydroxy-4-methoxy-phenyl)-7-[(2S,3R,4S,5S,6R)-3,4,5-trihydroxy-6-(hydroxymethyl)tetrahydropyran-2-yl]oxy-chroman-4-one

> <PUBCHEM_IUPAC_CAS_NAME>
(2S)-5-hydroxy-2-(3-hydroxy-4-methoxyphenyl)-7-[[(2S,3R,4S,5S,6R)-3,4,5-trihydroxy-6-(hydroxymethyl)-2-oxanyl]oxy]-3,4-dihydro-2H-1-benzopyran-4-one

> <PUBCHEM_IUPAC_NAME_MARKUP>
(2<I>S</I>)-5-hydroxy-2-(3-hydroxy-4-methoxyphenyl)-7-[(2<I>S</I>,3<I>R</I>,4<I>S</I>,5<I>S</I>,6<I>R</I>)-3,4,5-trihydroxy-6-(hydroxymethyl)oxan-2-yl]oxy-2,3-dihydrochromen-4-one

> <PUBCHEM_IUPAC_NAME>
(2S)-5-hydroxy-2-(3-hydroxy-4-methoxyphenyl)-7-[(2S,3R,4S,5S,6R)-3,4,5-trihydroxy-6-(hydroxymethyl)oxan-2-yl]oxy-2,3-dihydrochromen-4-one

> <PUBCHEM_IUPAC_SYSTEMATIC_NAME>
(2S)-7-[(2S,3R,4S,5S,6R)-6-(hydroxymethyl)-3,4,5-tris(oxidanyl)oxan-2-yl]oxy-2-(4-methoxy-3-oxidanyl-phenyl)-5-oxidanyl-2,3-dihydrochromen-4-one

> <PUBCHEM_IUPAC_TRADITIONAL_NAME>
(2S)-5-hydroxy-2-(3-hydroxy-4-methoxy-phenyl)-7-[(2S,3R,4S,5S,6R)-3,4,5-trihydroxy-6-methylol-tetrahydropyran-2-yl]oxy-chroman-4-one

> <PUBCHEM_IUPAC_INCHI>
InChI=1S/C22H24O11/c1-30-14-3-2-9(4-11(14)24)15-7-13(26)18-12(25)5-10(6-16(18)32-15)31-22-21(29)20(28)19(27)17(8-23)33-22/h2-6,15,17,19-25,27-29H,7-8H2,1H3/t15-,17+,19+,20-,21+,22+/m0/s1

> <PUBCHEM_IUPAC_INCHIKEY>
ADSYMQORONDIDD-ZJHVPRRPSA-N

> <PUBCHEM_XLOGP3_AA>
0.6

> <PUBCHEM_EXACT_MASS>
464.13186158

> <PUBCHEM_MOLECULAR_FORMULA>
C22H24O11

> <PUBCHEM_MOLECULAR_WEIGHT>
464.4

> <PUBCHEM_OPENEYE_CAN_SMILES>
COC1=C(C=C(C=C1)C2CC(=O)C3=C(C=C(C=C3O2)OC4C(C(C(C(O4)CO)O)O)O)O)O

> <PUBCHEM_OPENEYE_ISO_SMILES>
COC1=C(C=C(C=C1)[C@@H]2CC(=O)C3=C(C=C(C=C3O2)O[C@H]4[C@@H]([C@H]([C@@H]([C@H](O4)CO)O)O)O)O)O

> <PUBCHEM_CACTVS_TPSA>
175

> <PUBCHEM_MONOISOTOPIC_WEIGHT>
464.13186158

> <PUBCHEM_TOTAL_CHARGE>
0

> <PUBCHEM_HEAVY_ATOM_COUNT>
33

> <PUBCHEM_ATOM_DEF_STEREO_COUNT>
6

> <PUBCHEM_ATOM_UDEF_STEREO_COUNT>
0

> <PUBCHEM_BOND_DEF_STEREO_COUNT>
0

> <PUBCHEM_BOND_UDEF_STEREO_COUNT>
0

> <PUBCHEM_ISOTOPIC_ATOM_COUNT>
0

> <PUBCHEM_COMPONENT_COUNT>
1

> <PUBCHEM_CACTVS_TAUTO_COUNT>
27

> <PUBCHEM_COORDINATE_TYPE>
1
5
255

> <PUBCHEM_BONDANNOTATIONS>
15  17  5
18  23  8
18  25  8
19  27  5
16  2  5
21  22  8
21  23  8
22  26  8
25  26  8
27  28  8
27  29  8
28  30  8
29  31  8
12  3  5
30  32  8
31  32  8
13  4  6
14  5  6

$$$$
