72193635
  -OEChem-09052323512D

 83 89  0     1  0  0  0  0  0999 V2000
    9.5801   -0.8267    0.0000 O   0  0  0  0  0  0  0  0  0  0  0  0
    6.7942   -3.6111    0.0000 O   0  0  0  0  0  0  0  0  0  0  0  0
    5.8505   -1.1393    0.0000 O   0  0  0  0  0  0  0  0  0  0  0  0
   11.3503    1.2321    0.0000 O   0  0  0  0  0  0  0  0  0  0  0  0
    5.9693   -0.1183    0.0000 O   0  0  0  0  0  0  0  0  0  0  0  0
    7.8201    2.2080    0.0000 O   0  0  0  0  0  0  0  0  0  0  0  0
    9.9024   -1.6495    0.0000 O   0  0  0  0  0  0  0  0  0  0  0  0
   10.1030   -4.8412    0.0000 O   0  0  0  0  0  0  0  0  0  0  0  0
    3.4977   -5.0718    0.0000 O   0  0  0  0  0  0  0  0  0  0  0  0
   12.2066   -3.3195    0.0000 O   0  0  0  0  0  0  0  0  0  0  0  0
    2.2120   -3.5396    0.0000 O   0  0  0  0  0  0  0  0  0  0  0  0
   10.4785    2.7288    0.0000 O   0  0  0  0  0  0  0  0  0  0  0  0
   13.9425   -2.3262    0.0000 O   0  0  0  0  0  0  0  0  0  0  0  0
   14.8105    2.2455    0.0000 O   0  0  0  0  0  0  0  0  0  0  0  0
   13.0669    5.2388    0.0000 O   0  0  0  0  0  0  0  0  0  0  0  0
   14.8028    4.2455    0.0000 O   0  0  0  0  0  0  0  0  0  0  0  0
    7.4782   -1.7317    0.0000 C   0  0  1  0  0  0  0  0  0  0  0  0
    6.4933   -1.9054    0.0000 C   0  0  2  0  0  0  0  0  0  0  0  0
    7.8201   -0.7920    0.0000 C   0  0  0  0  0  0  0  0  0  0  0  0
    6.1513   -2.8451    0.0000 C   0  0  1  0  0  0  0  0  0  0  0  0
    8.1209   -2.4978    0.0000 C   0  0  0  0  0  0  0  0  0  0  0  0
    8.6862   -0.2920    0.0000 C   0  0  0  0  0  0  0  0  0  0  0  0
   10.4862    0.7288    0.0000 C   0  0  2  0  0  0  0  0  0  0  0  0
    8.6862    0.7080    0.0000 C   0  0  0  0  0  0  0  0  0  0  0  0
   10.4862   -0.3128    0.0000 C   0  0  1  0  0  0  0  0  0  0  0  0
    9.5801    1.2426    0.0000 C   0  0  0  0  0  0  0  0  0  0  0  0
    7.7789   -3.4374    0.0000 C   0  0  0  0  0  0  0  0  0  0  0  0
    6.9541   -0.2920    0.0000 C   0  0  0  0  0  0  0  0  0  0  0  0
    5.1665   -3.0187    0.0000 C   0  0  0  0  0  0  0  0  0  0  0  0
    7.8201    1.2080    0.0000 C   0  0  0  0  0  0  0  0  0  0  0  0
    9.1438   -2.3011    0.0000 C   0  0  0  0  0  0  0  0  0  0  0  0
   11.3503   -0.8162    0.0000 C   0  0  0  0  0  0  0  0  0  0  0  0
    6.9541    0.7080    0.0000 C   0  0  0  0  0  0  0  0  0  0  0  0
    8.4360   -4.2456    0.0000 C   0  0  0  0  0  0  0  0  0  0  0  0
    9.8195   -3.0938    0.0000 C   0  0  0  0  0  0  0  0  0  0  0  0
    9.4632   -4.0726    0.0000 C   0  0  0  0  0  0  0  0  0  0  0  0
    4.8245   -3.9584    0.0000 C   0  0  0  0  0  0  0  0  0  0  0  0
    4.5237   -2.2526    0.0000 C   0  0  0  0  0  0  0  0  0  0  0  0
   11.3464   -1.8162    0.0000 C   0  0  0  0  0  0  0  0  0  0  0  0
   12.2182   -0.3195    0.0000 C   0  0  0  0  0  0  0  0  0  0  0  0
    3.8397   -4.1321    0.0000 C   0  0  0  0  0  0  0  0  0  0  0  0
    3.5389   -2.4263    0.0000 C   0  0  0  0  0  0  0  0  0  0  0  0
   11.3464    2.2321    0.0000 C   0  0  0  0  0  0  0  0  0  0  0  0
   12.2105   -2.3195    0.0000 C   0  0  0  0  0  0  0  0  0  0  0  0
    3.1969   -3.3660    0.0000 C   0  0  0  0  0  0  0  0  0  0  0  0
   13.0823   -0.8228    0.0000 C   0  0  0  0  0  0  0  0  0  0  0  0
   13.0784   -1.8228    0.0000 C   0  0  0  0  0  0  0  0  0  0  0  0
   12.2105    2.7355    0.0000 C   0  0  0  0  0  0  0  0  0  0  0  0
   12.2066    3.7355    0.0000 C   0  0  0  0  0  0  0  0  0  0  0  0
   13.0784    2.2388    0.0000 C   0  0  0  0  0  0  0  0  0  0  0  0
   13.9425    2.7421    0.0000 C   0  0  0  0  0  0  0  0  0  0  0  0
   13.0707    4.2388    0.0000 C   0  0  0  0  0  0  0  0  0  0  0  0
   13.9387    3.7421    0.0000 C   0  0  0  0  0  0  0  0  0  0  0  0
    6.9318   -1.0806    0.0000 H   0  0  0  0  0  0  0  0  0  0  0  0
    5.8827   -2.0130    0.0000 H   0  0  0  0  0  0  0  0  0  0  0  0
    5.9393   -3.4277    0.0000 H   0  0  0  0  0  0  0  0  0  0  0  0
   11.0237    0.4198    0.0000 H   0  0  0  0  0  0  0  0  0  0  0  0
   11.0237   -0.0039    0.0000 H   0  0  0  0  0  0  0  0  0  0  0  0
    9.9737    1.7217    0.0000 H   0  0  0  0  0  0  0  0  0  0  0  0
    9.1755    1.7124    0.0000 H   0  0  0  0  0  0  0  0  0  0  0  0
    6.4172    1.0180    0.0000 H   0  0  0  0  0  0  0  0  0  0  0  0
    5.2399   -1.2469    0.0000 H   0  0  0  0  0  0  0  0  0  0  0  0
    8.2173   -4.8257    0.0000 H   0  0  0  0  0  0  0  0  0  0  0  0
   10.4296   -2.9838    0.0000 H   0  0  0  0  0  0  0  0  0  0  0  0
    5.2230   -4.4334    0.0000 H   0  0  0  0  0  0  0  0  0  0  0  0
    4.7357   -1.6700    0.0000 H   0  0  0  0  0  0  0  0  0  0  0  0
   10.8083   -2.1241    0.0000 H   0  0  0  0  0  0  0  0  0  0  0  0
   12.2206    0.3005    0.0000 H   0  0  0  0  0  0  0  0  0  0  0  0
    5.7573    0.4643    0.0000 H   0  0  0  0  0  0  0  0  0  0  0  0
    7.2832    2.5180    0.0000 H   0  0  0  0  0  0  0  0  0  0  0  0
   10.4874   -1.8548    0.0000 H   0  0  0  0  0  0  0  0  0  0  0  0
    3.1403   -1.9513    0.0000 H   0  0  0  0  0  0  0  0  0  0  0  0
   13.6204   -0.5149    0.0000 H   0  0  0  0  0  0  0  0  0  0  0  0
    9.8887   -5.4229    0.0000 H   0  0  0  0  0  0  0  0  0  0  0  0
    3.8962   -5.5467    0.0000 H   0  0  0  0  0  0  0  0  0  0  0  0
   12.7424   -3.6316    0.0000 H   0  0  0  0  0  0  0  0  0  0  0  0
    2.0000   -4.1223    0.0000 H   0  0  0  0  0  0  0  0  0  0  0  0
   11.6685    4.0434    0.0000 H   0  0  0  0  0  0  0  0  0  0  0  0
   13.0808    1.6188    0.0000 H   0  0  0  0  0  0  0  0  0  0  0  0
   14.4807   -2.0182    0.0000 H   0  0  0  0  0  0  0  0  0  0  0  0
   15.3462    2.5576    0.0000 H   0  0  0  0  0  0  0  0  0  0  0  0
   12.5287    5.5467    0.0000 H   0  0  0  0  0  0  0  0  0  0  0  0
   14.8004    4.8655    0.0000 H   0  0  0  0  0  0  0  0  0  0  0  0
  1 22  1  0  0  0  0
  1 25  1  0  0  0  0
  2 20  1  0  0  0  0
  2 27  1  0  0  0  0
 18  3  1  6  0  0  0
  3 62  1  0  0  0  0
 23  4  1  6  0  0  0
  4 43  1  0  0  0  0
  5 28  1  0  0  0  0
  5 69  1  0  0  0  0
  6 30  1  0  0  0  0
  6 70  1  0  0  0  0
  7 31  1  0  0  0  0
  7 71  1  0  0  0  0
  8 36  1  0  0  0  0
  8 74  1  0  0  0  0
  9 41  1  0  0  0  0
  9 75  1  0  0  0  0
 10 44  1  0  0  0  0
 10 76  1  0  0  0  0
 11 45  1  0  0  0  0
 11 77  1  0  0  0  0
 12 43  2  0  0  0  0
 13 47  1  0  0  0  0
 13 80  1  0  0  0  0
 14 51  1  0  0  0  0
 14 81  1  0  0  0  0
 15 52  1  0  0  0  0
 15 82  1  0  0  0  0
 16 53  1  0  0  0  0
 16 83  1  0  0  0  0
 17 18  1  0  0  0  0
 17 19  1  0  0  0  0
 17 21  1  0  0  0  0
 17 54  1  6  0  0  0
 18 20  1  0  0  0  0
 18 55  1  0  0  0  0
 19 22  1  0  0  0  0
 19 28  2  0  0  0  0
 20 29  1  6  0  0  0
 20 56  1  0  0  0  0
 21 27  1  0  0  0  0
 21 31  2  0  0  0  0
 22 24  2  0  0  0  0
 23 25  1  0  0  0  0
 23 26  1  0  0  0  0
 23 57  1  0  0  0  0
 24 26  1  0  0  0  0
 24 30  1  0  0  0  0
 25 32  1  1  0  0  0
 25 58  1  0  0  0  0
 26 59  1  0  0  0  0
 26 60  1  0  0  0  0
 27 34  2  0  0  0  0
 28 33  1  0  0  0  0
 29 37  2  0  0  0  0
 29 38  1  0  0  0  0
 30 33  2  0  0  0  0
 31 35  1  0  0  0  0
 32 39  2  0  0  0  0
 32 40  1  0  0  0  0
 33 61  1  0  0  0  0
 34 36  1  0  0  0  0
 34 63  1  0  0  0  0
 35 36  2  0  0  0  0
 35 64  1  0  0  0  0
 37 41  1  0  0  0  0
 37 65  1  0  0  0  0
 38 42  2  0  0  0  0
 38 66  1  0  0  0  0
 39 44  1  0  0  0  0
 39 67  1  0  0  0  0
 40 46  2  0  0  0  0
 40 68  1  0  0  0  0
 41 45  2  0  0  0  0
 42 45  1  0  0  0  0
 42 72  1  0  0  0  0
 43 48  1  0  0  0  0
 44 47  2  0  0  0  0
 46 47  1  0  0  0  0
 46 73  1  0  0  0  0
 48 49  2  0  0  0  0
 48 50  1  0  0  0  0
 49 52  1  0  0  0  0
 49 78  1  0  0  0  0
 50 51  2  0  0  0  0
 50 79  1  0  0  0  0
 51 53  1  0  0  0  0
 52 53  2  0  0  0  0
M  END
> <PUBCHEM_COMPOUND_CID>
72193635

> <PUBCHEM_COMPOUND_CANONICALIZED>
1

> <PUBCHEM_CACTVS_COMPLEXITY>
1250

> <PUBCHEM_CACTVS_HBOND_ACCEPTOR>
16

> <PUBCHEM_CACTVS_HBOND_DONOR>
12

> <PUBCHEM_CACTVS_ROTATABLE_BOND>
6

> <PUBCHEM_CACTVS_SUBSKEYS>
AAADceB8PgAAAAAAAAAAAAAAAAAAAAAAAAA0aMGDAAAAAACRVAAAGgAACAAADRSgmAIwDoAABgCIAiDSCAACCAAkIAAIiAEGiMgNNzKGNRqCeSGlwBULuYfK7PzOoAADCAAIQABAAAYQABCAAAAAAAAAAA==

> <PUBCHEM_IUPAC_OPENEYE_NAME>
[(2R,3S)-2-(3,4-dihydroxyphenyl)-8-[(2R,3R,4R)-2-(3,4-dihydroxyphenyl)-3,5,7-trihydroxy-chroman-4-yl]-5,7-dihydroxy-chroman-3-yl] 3,4,5-trihydroxybenzoate

> <PUBCHEM_IUPAC_CAS_NAME>
3,4,5-trihydroxybenzoic acid [(2R,3S)-2-(3,4-dihydroxyphenyl)-8-[(2R,3R,4R)-2-(3,4-dihydroxyphenyl)-3,5,7-trihydroxy-3,4-dihydro-2H-1-benzopyran-4-yl]-5,7-dihydroxy-3,4-dihydro-2H-1-benzopyran-3-yl] ester

> <PUBCHEM_IUPAC_NAME_MARKUP>
[(2<I>R</I>,3<I>S</I>)-2-(3,4-dihydroxyphenyl)-8-[(2<I>R</I>,3<I>R</I>,4<I>R</I>)-2-(3,4-dihydroxyphenyl)-3,5,7-trihydroxy-3,4-dihydro-2<I>H</I>-chromen-4-yl]-5,7-dihydroxy-3,4-dihydro-2<I>H</I>-chromen-3-yl] 3,4,5-trihydroxybenzoate

> <PUBCHEM_IUPAC_NAME>
[(2R,3S)-2-(3,4-dihydroxyphenyl)-8-[(2R,3R,4R)-2-(3,4-dihydroxyphenyl)-3,5,7-trihydroxy-3,4-dihydro-2H-chromen-4-yl]-5,7-dihydroxy-3,4-dihydro-2H-chromen-3-yl] 3,4,5-trihydroxybenzoate

> <PUBCHEM_IUPAC_SYSTEMATIC_NAME>
[(2R,3S)-2-[3,4-bis(oxidanyl)phenyl]-8-[(2R,3R,4R)-2-[3,4-bis(oxidanyl)phenyl]-3,5,7-tris(oxidanyl)-3,4-dihydro-2H-chromen-4-yl]-5,7-bis(oxidanyl)-3,4-dihydro-2H-chromen-3-yl] 3,4,5-tris(oxidanyl)benzoate

> <PUBCHEM_IUPAC_TRADITIONAL_NAME>
3,4,5-trihydroxybenzoic acid [(2R,3S)-2-(3,4-dihydroxyphenyl)-8-[(2R,3R,4R)-2-(3,4-dihydroxyphenyl)-3,5,7-trihydroxy-chroman-4-yl]-5,7-dihydroxy-chroman-3-yl] ester

> <PUBCHEM_IUPAC_INCHI>
InChI=1S/C37H30O16/c38-16-9-23(44)29-27(10-16)51-35(14-2-4-19(40)22(43)6-14)33(49)31(29)30-24(45)12-20(41)17-11-28(52-37(50)15-7-25(46)32(48)26(47)8-15)34(53-36(17)30)13-1-3-18(39)21(42)5-13/h1-10,12,28,31,33-35,38-49H,11H2/t28-,31+,33+,34+,35+/m0/s1

> <PUBCHEM_IUPAC_INCHIKEY>
VLFKNLZNDSEVBZ-XOKZLUOPSA-N

> <PUBCHEM_XLOGP3_AA>
3.5

> <PUBCHEM_EXACT_MASS>
730.15338487

> <PUBCHEM_MOLECULAR_FORMULA>
C37H30O16

> <PUBCHEM_MOLECULAR_WEIGHT>
730.6

> <PUBCHEM_OPENEYE_CAN_SMILES>
C1C(C(OC2=C1C(=CC(=C2C3C(C(OC4=CC(=CC(=C34)O)O)C5=CC(=C(C=C5)O)O)O)O)O)C6=CC(=C(C=C6)O)O)OC(=O)C7=CC(=C(C(=C7)O)O)O

> <PUBCHEM_OPENEYE_ISO_SMILES>
C1[C@@H]([C@H](OC2=C1C(=CC(=C2[C@@H]3[C@H]([C@H](OC4=CC(=CC(=C34)O)O)C5=CC(=C(C=C5)O)O)O)O)O)C6=CC(=C(C=C6)O)O)OC(=O)C7=CC(=C(C(=C7)O)O)O

> <PUBCHEM_CACTVS_TPSA>
288

> <PUBCHEM_MONOISOTOPIC_WEIGHT>
730.15338487

> <PUBCHEM_TOTAL_CHARGE>
0

> <PUBCHEM_HEAVY_ATOM_COUNT>
53

> <PUBCHEM_ATOM_DEF_STEREO_COUNT>
5

> <PUBCHEM_ATOM_UDEF_STEREO_COUNT>
0

> <PUBCHEM_BOND_DEF_STEREO_COUNT>
0

> <PUBCHEM_BOND_UDEF_STEREO_COUNT>
0

> <PUBCHEM_ISOTOPIC_ATOM_COUNT>
0

> <PUBCHEM_COMPONENT_COUNT>
1

> <PUBCHEM_CACTVS_TAUTO_COUNT>
-1

> <PUBCHEM_COORDINATE_TYPE>
1
5
255

> <PUBCHEM_BONDANNOTATIONS>
17  54  6
19  22  8
19  28  8
20  29  6
21  27  8
21  31  8
22  24  8
24  30  8
25  32  5
27  34  8
28  33  8
29  37  8
29  38  8
18  3  6
30  33  8
31  35  8
32  39  8
32  40  8
34  36  8
35  36  8
37  41  8
38  42  8
39  44  8
23  4  6
40  46  8
41  45  8
42  45  8
44  47  8
46  47  8
48  49  8
48  50  8
49  52  8
50  51  8
51  53  8
52  53  8

$$$$
