69964214
  -OEChem-08112308222D

 75 79  0     1  0  0  0  0  0999 V2000
    6.8671   -3.8696    0.0000 O   0  0  0  0  0  0  0  0  0  0  0  0
    5.1350   -1.8696    0.0000 O   0  0  0  0  0  0  0  0  0  0  0  0
    7.7331   -2.3696    0.0000 O   0  0  0  0  0  0  0  0  0  0  0  0
    5.1350   -4.8696    0.0000 O   0  0  0  0  0  0  0  0  0  0  0  0
    6.8671   -1.8696    0.0000 O   0  0  0  0  0  0  0  0  0  0  0  0
    3.4030   -3.8696    0.0000 O   0  0  0  0  0  0  0  0  0  0  0  0
    8.5991   -4.8696    0.0000 O   0  0  0  0  0  0  0  0  0  0  0  0
   10.3312   -3.8696    0.0000 O   0  0  0  0  0  0  0  0  0  0  0  0
   10.3312   -1.8696    0.0000 O   0  0  0  0  0  0  0  0  0  0  0  0
    2.5369   -2.3696    0.0000 O   0  0  0  0  0  0  0  0  0  0  0  0
    8.6230    1.1930    0.0000 O   0  0  0  0  0  0  0  0  0  0  0  0
    5.1208    1.2096    0.0000 O   0  0  0  0  0  0  0  0  0  0  0  0
    6.0308    2.7030    0.0000 O   0  0  0  0  0  0  0  0  0  0  0  0
   12.0987    4.1796    0.0000 O   0  0  0  0  0  0  0  0  0  0  0  0
   12.0910    2.1796    0.0000 O   0  0  0  0  0  0  0  0  0  0  0  0
    6.0010   -3.3696    0.0000 C   0  0  2  0  0  0  0  0  0  0  0  0
    5.1350   -3.8696    0.0000 C   0  0  2  0  0  0  0  0  0  0  0  0
    4.2690   -3.3696    0.0000 C   0  0  1  0  0  0  0  0  0  0  0  0
    7.7331   -3.3696    0.0000 C   0  0  2  0  0  0  0  0  0  0  0  0
    8.5991   -3.8696    0.0000 C   0  0  1  0  0  0  0  0  0  0  0  0
    6.0010   -2.3696    0.0000 C   0  0  1  0  0  0  0  0  0  0  0  0
    4.2690   -2.3696    0.0000 C   0  0  1  0  0  0  0  0  0  0  0  0
    9.4651   -3.3696    0.0000 C   0  0  1  0  0  0  0  0  0  0  0  0
    9.4651   -2.3696    0.0000 C   0  0  2  0  0  0  0  0  0  0  0  0
    8.5991   -1.8696    0.0000 C   0  0  2  0  0  0  0  0  0  0  0  0
    3.4030   -1.8696    0.0000 C   0  0  0  0  0  0  0  0  0  0  0  0
    8.5991   -0.8696    0.0000 C   0  0  0  0  0  0  0  0  0  0  0  0
    6.8671   -0.8696    0.0000 C   0  0  0  0  0  0  0  0  0  0  0  0
    7.7671   -0.3453    0.0000 C   0  0  0  0  0  0  0  0  0  0  0  0
    5.9670   -0.3453    0.0000 C   0  0  0  0  0  0  0  0  0  0  0  0
    7.7551    0.6963    0.0000 C   0  0  0  0  0  0  0  0  0  0  0  0
    5.9790    0.6963    0.0000 C   0  0  0  0  0  0  0  0  0  0  0  0
    6.8910    1.1996    0.0000 C   0  0  0  0  0  0  0  0  0  0  0  0
    6.8948    2.1996    0.0000 C   0  0  0  0  0  0  0  0  0  0  0  0
    8.6269    2.1929    0.0000 C   0  0  0  0  0  0  0  0  0  0  0  0
    7.7628    2.6963    0.0000 C   0  0  0  0  0  0  0  0  0  0  0  0
    9.4948    2.6896    0.0000 C   0  0  0  0  0  0  0  0  0  0  0  0
   10.3589    2.1863    0.0000 C   0  0  0  0  0  0  0  0  0  0  0  0
    9.4987    3.6896    0.0000 C   0  0  0  0  0  0  0  0  0  0  0  0
   11.2269    2.6829    0.0000 C   0  0  0  0  0  0  0  0  0  0  0  0
   10.3666    4.1862    0.0000 C   0  0  0  0  0  0  0  0  0  0  0  0
   11.2307    3.6829    0.0000 C   0  0  0  0  0  0  0  0  0  0  0  0
   12.1025    5.1796    0.0000 C   0  0  0  0  0  0  0  0  0  0  0  0
    6.0010   -3.9896    0.0000 H   0  0  0  0  0  0  0  0  0  0  0  0
    4.5981   -4.1796    0.0000 H   0  0  0  0  0  0  0  0  0  0  0  0
    4.2690   -3.9896    0.0000 H   0  0  0  0  0  0  0  0  0  0  0  0
    7.7331   -3.9896    0.0000 H   0  0  0  0  0  0  0  0  0  0  0  0
    9.1360   -4.1796    0.0000 H   0  0  0  0  0  0  0  0  0  0  0  0
    6.0010   -1.7496    0.0000 H   0  0  0  0  0  0  0  0  0  0  0  0
    4.2690   -1.7496    0.0000 H   0  0  0  0  0  0  0  0  0  0  0  0
    9.4651   -3.9896    0.0000 H   0  0  0  0  0  0  0  0  0  0  0  0
   10.0021   -2.6796    0.0000 H   0  0  0  0  0  0  0  0  0  0  0  0
    8.0622   -1.5596    0.0000 H   0  0  0  0  0  0  0  0  0  0  0  0
    3.8015   -1.3946    0.0000 H   0  0  0  0  0  0  0  0  0  0  0  0
    3.0044   -1.3946    0.0000 H   0  0  0  0  0  0  0  0  0  0  0  0
    9.2191   -0.8696    0.0000 H   0  0  0  0  0  0  0  0  0  0  0  0
    8.5991   -0.2496    0.0000 H   0  0  0  0  0  0  0  0  0  0  0  0
    7.9791   -0.8696    0.0000 H   0  0  0  0  0  0  0  0  0  0  0  0
    4.5981   -5.1796    0.0000 H   0  0  0  0  0  0  0  0  0  0  0  0
    3.4030   -4.4896    0.0000 H   0  0  0  0  0  0  0  0  0  0  0  0
    9.1360   -5.1796    0.0000 H   0  0  0  0  0  0  0  0  0  0  0  0
   10.8681   -3.5596    0.0000 H   0  0  0  0  0  0  0  0  0  0  0  0
   10.8681   -2.1796    0.0000 H   0  0  0  0  0  0  0  0  0  0  0  0
    2.0000   -2.0596    0.0000 H   0  0  0  0  0  0  0  0  0  0  0  0
    8.3064   -0.6511    0.0000 H   0  0  0  0  0  0  0  0  0  0  0  0
    5.4277   -0.6511    0.0000 H   0  0  0  0  0  0  0  0  0  0  0  0
    7.7652    3.3163    0.0000 H   0  0  0  0  0  0  0  0  0  0  0  0
    4.5792    0.9079    0.0000 H   0  0  0  0  0  0  0  0  0  0  0  0
   10.3565    1.5663    0.0000 H   0  0  0  0  0  0  0  0  0  0  0  0
    8.9630    4.0017    0.0000 H   0  0  0  0  0  0  0  0  0  0  0  0
   10.3690    4.8062    0.0000 H   0  0  0  0  0  0  0  0  0  0  0  0
   12.6291    2.4875    0.0000 H   0  0  0  0  0  0  0  0  0  0  0  0
   12.7225    5.1772    0.0000 H   0  0  0  0  0  0  0  0  0  0  0  0
   12.1049    5.7996    0.0000 H   0  0  0  0  0  0  0  0  0  0  0  0
   11.4825    5.1819    0.0000 H   0  0  0  0  0  0  0  0  0  0  0  0
 16  1  1  6  0  0  0
 19  1  1  6  0  0  0
  2 21  1  0  0  0  0
  2 22  1  0  0  0  0
  3 19  1  0  0  0  0
  3 25  1  0  0  0  0
 17  4  1  1  0  0  0
  4 59  1  0  0  0  0
 21  5  1  1  0  0  0
  5 28  1  0  0  0  0
 18  6  1  6  0  0  0
  6 60  1  0  0  0  0
 20  7  1  1  0  0  0
  7 61  1  0  0  0  0
 23  8  1  1  0  0  0
  8 62  1  0  0  0  0
 24  9  1  6  0  0  0
  9 63  1  0  0  0  0
 10 26  1  0  0  0  0
 10 64  1  0  0  0  0
 11 31  1  0  0  0  0
 11 35  1  0  0  0  0
 12 32  1  0  0  0  0
 12 68  1  0  0  0  0
 13 34  2  0  0  0  0
 14 42  1  0  0  0  0
 14 43  1  0  0  0  0
 15 40  1  0  0  0  0
 15 72  1  0  0  0  0
 16 17  1  0  0  0  0
 16 21  1  0  0  0  0
 16 44  1  0  0  0  0
 17 18  1  0  0  0  0
 17 45  1  0  0  0  0
 18 22  1  0  0  0  0
 18 46  1  0  0  0  0
 19 20  1  0  0  0  0
 19 47  1  0  0  0  0
 20 23  1  0  0  0  0
 20 48  1  0  0  0  0
 21 49  1  0  0  0  0
 22 26  1  1  0  0  0
 22 50  1  0  0  0  0
 23 24  1  0  0  0  0
 23 51  1  0  0  0  0
 24 25  1  0  0  0  0
 24 52  1  0  0  0  0
 25 27  1  1  0  0  0
 25 53  1  0  0  0  0
 26 54  1  0  0  0  0
 26 55  1  0  0  0  0
 27 56  1  0  0  0  0
 27 57  1  0  0  0  0
 27 58  1  0  0  0  0
 28 29  1  0  0  0  0
 28 30  2  0  0  0  0
 29 31  2  0  0  0  0
 29 65  1  0  0  0  0
 30 32  1  0  0  0  0
 30 66  1  0  0  0  0
 31 33  1  0  0  0  0
 32 33  2  0  0  0  0
 33 34  1  0  0  0  0
 34 36  1  0  0  0  0
 35 36  2  0  0  0  0
 35 37  1  0  0  0  0
 36 67  1  0  0  0  0
 37 38  2  0  0  0  0
 37 39  1  0  0  0  0
 38 40  1  0  0  0  0
 38 69  1  0  0  0  0
 39 41  2  0  0  0  0
 39 70  1  0  0  0  0
 40 42  2  0  0  0  0
 41 42  1  0  0  0  0
 41 71  1  0  0  0  0
 43 73  1  0  0  0  0
 43 74  1  0  0  0  0
 43 75  1  0  0  0  0
M  END
> <PUBCHEM_COMPOUND_CID>
69964214

> <PUBCHEM_COMPOUND_CANONICALIZED>
1

> <PUBCHEM_CACTVS_COMPLEXITY>
995

> <PUBCHEM_CACTVS_HBOND_ACCEPTOR>
15

> <PUBCHEM_CACTVS_HBOND_DONOR>
8

> <PUBCHEM_CACTVS_ROTATABLE_BOND>
7

> <PUBCHEM_CACTVS_SUBSKEYS>
AAADcfB4PAAAAAAAAAAAAAAAAAAAAAAAAAA0aIECAAAAAACBQAAAGgAACAAADBSwmAMyDoAABgCIAqBSAAACCAAkIAAIiAEGiMgdNzaGNRqieWOl4BUPuQfI7LzOIAABCAAIQABAAAIQABCAAAAAAAAAAA==

> <PUBCHEM_IUPAC_OPENEYE_NAME>
7-[(2S,3R,4S,5S,6R)-4,5-dihydroxy-6-(hydroxymethyl)-3-[(2S,3R,4R,5R,6S)-3,4,5-trihydroxy-6-methyl-tetrahydropyran-2-yl]oxy-tetrahydropyran-2-yl]oxy-5-hydroxy-2-(3-hydroxy-4-methoxy-phenyl)chromen-4-one

> <PUBCHEM_IUPAC_CAS_NAME>
7-[[(2S,3R,4S,5S,6R)-4,5-dihydroxy-6-(hydroxymethyl)-3-[[(2S,3R,4R,5R,6S)-3,4,5-trihydroxy-6-methyl-2-oxanyl]oxy]-2-oxanyl]oxy]-5-hydroxy-2-(3-hydroxy-4-methoxyphenyl)-1-benzopyran-4-one

> <PUBCHEM_IUPAC_NAME_MARKUP>
7-[(2<I>S</I>,3<I>R</I>,4<I>S</I>,5<I>S</I>,6<I>R</I>)-4,5-dihydroxy-6-(hydroxymethyl)-3-[(2<I>S</I>,3<I>R</I>,4<I>R</I>,5<I>R</I>,6<I>S</I>)-3,4,5-trihydroxy-6-methyloxan-2-yl]oxyoxan-2-yl]oxy-5-hydroxy-2-(3-hydroxy-4-methoxyphenyl)chromen-4-one

> <PUBCHEM_IUPAC_NAME>
7-[(2S,3R,4S,5S,6R)-4,5-dihydroxy-6-(hydroxymethyl)-3-[(2S,3R,4R,5R,6S)-3,4,5-trihydroxy-6-methyloxan-2-yl]oxyoxan-2-yl]oxy-5-hydroxy-2-(3-hydroxy-4-methoxyphenyl)chromen-4-one

> <PUBCHEM_IUPAC_SYSTEMATIC_NAME>
7-[(2S,3R,4S,5S,6R)-6-(hydroxymethyl)-3-[(2S,3R,4R,5R,6S)-6-methyl-3,4,5-tris(oxidanyl)oxan-2-yl]oxy-4,5-bis(oxidanyl)oxan-2-yl]oxy-2-(4-methoxy-3-oxidanyl-phenyl)-5-oxidanyl-chromen-4-one

> <PUBCHEM_IUPAC_TRADITIONAL_NAME>
7-[(2S,3R,4S,5S,6R)-4,5-dihydroxy-6-methylol-3-[(2S,3R,4R,5R,6S)-3,4,5-trihydroxy-6-methyl-tetrahydropyran-2-yl]oxy-tetrahydropyran-2-yl]oxy-5-hydroxy-2-(3-hydroxy-4-methoxy-phenyl)chromone

> <PUBCHEM_IUPAC_INCHI>
InChI=1S/C28H32O15/c1-10-21(33)23(35)25(37)27(39-10)43-26-24(36)22(34)19(9-29)42-28(26)40-12-6-14(31)20-15(32)8-17(41-18(20)7-12)11-3-4-16(38-2)13(30)5-11/h3-8,10,19,21-31,33-37H,9H2,1-2H3/t10-,19+,21-,22+,23+,24-,25+,26+,27-,28+/m0/s1

> <PUBCHEM_IUPAC_INCHIKEY>
VCCNKWWXYVWTLT-CYZBKYQRSA-N

> <PUBCHEM_XLOGP3_AA>
-0.3

> <PUBCHEM_EXACT_MASS>
608.17412031

> <PUBCHEM_MOLECULAR_FORMULA>
C28H32O15

> <PUBCHEM_MOLECULAR_WEIGHT>
608.5

> <PUBCHEM_OPENEYE_CAN_SMILES>
CC1C(C(C(C(O1)OC2C(C(C(OC2OC3=CC(=C4C(=C3)OC(=CC4=O)C5=CC(=C(C=C5)OC)O)O)CO)O)O)O)O)O

> <PUBCHEM_OPENEYE_ISO_SMILES>
C[C@H]1[C@@H]([C@H]([C@H]([C@@H](O1)O[C@@H]2[C@H]([C@@H]([C@H](O[C@H]2OC3=CC(=C4C(=C3)OC(=CC4=O)C5=CC(=C(C=C5)OC)O)O)CO)O)O)O)O)O

> <PUBCHEM_CACTVS_TPSA>
234

> <PUBCHEM_MONOISOTOPIC_WEIGHT>
608.17412031

> <PUBCHEM_TOTAL_CHARGE>
0

> <PUBCHEM_HEAVY_ATOM_COUNT>
43

> <PUBCHEM_ATOM_DEF_STEREO_COUNT>
10

> <PUBCHEM_ATOM_UDEF_STEREO_COUNT>
0

> <PUBCHEM_BOND_DEF_STEREO_COUNT>
0

> <PUBCHEM_BOND_UDEF_STEREO_COUNT>
0

> <PUBCHEM_ISOTOPIC_ATOM_COUNT>
0

> <PUBCHEM_COMPONENT_COUNT>
1

> <PUBCHEM_CACTVS_TAUTO_COUNT>
-1

> <PUBCHEM_COORDINATE_TYPE>
1
5
255

> <PUBCHEM_BONDANNOTATIONS>
16  1  6
19  1  6
11  31  8
11  35  8
22  26  5
25  27  5
28  29  8
28  30  8
29  31  8
30  32  8
31  33  8
32  33  8
33  34  8
34  36  8
35  36  8
37  38  8
37  39  8
38  40  8
39  41  8
17  4  5
40  42  8
41  42  8
21  5  5
18  6  6
20  7  5
23  8  5
24  9  6

$$$$
