588
  SciTegic09112317153D

 15 15  0  0  0  0            999 V2000
   -3.1850   -0.8250    0.0040 O   0  0  0  1  0  0
    0.2370   -0.2880    0.0040 N   0  0  0  1  0  0
   -1.6440    0.9070    0.0040 N   0  0  0  1  0  0
    0.3240    2.1540    0.0040 N   0  0  0  1  0  0
   -0.7920   -1.3110    0.0030 C   0  0  0  1  0  0
   -0.3650    0.9720    0.0040 C   0  0  0  1  0  0
   -2.0360   -0.4500    0.0040 C   0  0  0  1  0  0
    1.6690   -0.5790    0.0040 C   0  0  0  1  0  0
   -0.7330   -1.9240   -0.8850 H   0  0  0  1  0  0
   -0.7340   -1.9250    0.8910 H   0  0  0  1  0  0
    2.1310   -0.1270    0.8810 H   0  0  0  1  0  0
    1.8200   -1.6570   -0.0440 H   0  0  0  1  0  0
    2.1300   -0.1380   -0.8800 H   0  0  0  1  0  0
   -0.1460    3.0370    0.0040 H   0  0  0  1  0  0
    1.3240    2.1540    0.0040 H   0  0  0  1  0  0
  1  7  2  0
  2  5  1  0
  2  6  1  0
  2  8  1  0
  3  6  2  0
  3  7  1  0
  4  6  1  0
  4 14  1  0
  4 15  1  0
  5  7  1  0
  5  9  1  0
  5 10  1  0
  8 11  1  0
  8 12  1  0
  8 13  1  0
M  END
> <Name>
588

> <AbsoluteEnergy>
13.4687

> <ConfNumber>
1

> <Ionization pH>
7.5

> <IonizationIndex>
1

> <NumberOfIonizations>
1

> <NumberOfStereoisomers>
1

> <NumberOfTautomers>
3

> <OBJECTID>
9223372036858118157

> <PUBCHEM_ATOM_DEF_STEREO_COUNT>
0

> <PUBCHEM_ATOM_UDEF_STEREO_COUNT>
0

> <PUBCHEM_BOND_DEF_STEREO_COUNT>
0

> <PUBCHEM_BOND_UDEF_STEREO_COUNT>
0

> <PUBCHEM_CACTVS_TAUTO_COUNT>
3

> <PUBCHEM_COMPONENT_COUNT>
1

> <PUBCHEM_COMPOUND_CID>
588

> <PUBCHEM_CONFORMER_DIVERSEORDER>
1

> <PUBCHEM_CONFORMER_ID>
0000024C00000001

> <PUBCHEM_CONFORMER_RMSD>
0.4

> <PUBCHEM_COORDINATE_TYPE>
2
5
10

> <PUBCHEM_EFFECTIVE_ROTOR_COUNT>
0.4

> <PUBCHEM_FEATURE_SELFOVERLAP>
20.331

> <PUBCHEM_HEAVY_ATOM_COUNT>
8

> <PUBCHEM_ISOTOPIC_ATOM_COUNT>
0

> <PUBCHEM_MMFF94_ENERGY>
21.0703

> <PUBCHEM_MMFF94_PARTIAL_CHARGES>
10
1 -0.57
14 0.4
15 0.4
2 -0.79
3 -0.66
4 -0.85
5 0.43
6 0.55
7 0.72
8 0.37

> <PUBCHEM_PHARMACOPHORE_FEATURES>
4
1 1 acceptor
1 3 donor
1 4 donor
5 2 3 5 6 7 rings

> <PUBCHEM_SHAPE_FINGERPRINT>
16714656 1 18337395937367838164
20096714 4 18338517413368617104
21040471 1 18266740181874011844
23552423 10 18260554411567074382
29004967 10 17830455346741406355

> <PUBCHEM_SHAPE_MULTIPOLES>
143.82
2.66
1.59
0.57
0.65
0.16
0
-0.37
0
-0.81
0
-0.01
-0.02
0

> <PUBCHEM_SHAPE_SELFOVERLAP>
290.91

> <PUBCHEM_SHAPE_VOLUME>
87.1

> <RelativeEnergy>
0

> <StereoisomerIndex>
1

> <TautomerIndex>
1

> <LibDock Warning>
no hit found

> <ErrorText>
LibDock failed

$$$$
588
  SciTegic09112317153D

 15 15  0  0  0  0            999 V2000
   -1.4270   -2.5830    0.8460 O   0  0  0  1  0  0
   -0.1250    0.5190   -0.1260 N   0  0  0  1  0  0
    0.6150   -1.6110    0.3470 N   0  0  0  1  0  0
    2.1960    0.0510   -0.2800 N   0  0  0  1  0  0
   -1.3280   -0.2270    0.2150 C   0  0  0  1  0  0
    0.9880   -0.3180   -0.0380 C   0  0  0  1  0  0
   -0.7860   -1.6130    0.5150 C   0  0  0  1  0  0
   -0.1330    1.9340   -0.4980 C   0  0  0  1  0  0
   -2.0160   -0.2480   -0.6170 H   0  0  0  1  0  0
   -1.8110    0.1990    1.0820 H   0  0  0  1  0  0
    0.2970    2.0500   -1.4930 H   0  0  0  1  0  0
   -1.1490    2.3210   -0.4290 H   0  0  0  1  0  0
    0.4860    2.4970    0.2000 H   0  0  0  1  0  0
    2.9720   -0.5770   -0.2070 H   0  0  0  1  0  0
    1.2220   -2.3950    0.4810 H   0  0  0  1  0  0
  1  7  2  0
  2  5  1  0
  2  6  1  0
  2  8  1  0
  3  6  1  0
  3  7  1  0
  3 15  1  0
  4  6  2  0
  4 14  1  0
  5  7  1  0
  5  9  1  0
  5 10  1  0
  8 11  1  0
  8 12  1  0
  8 13  1  0
M  END
> <Name>
588

> <AbsoluteEnergy>
13.7551

> <ConfNumber>
1

> <Ionization pH>
7.5

> <IonizationIndex>
1

> <NumberOfIonizations>
1

> <NumberOfStereoisomers>
1

> <NumberOfTautomers>
3

> <OBJECTID>
9223372041153085453

> <PUBCHEM_ATOM_DEF_STEREO_COUNT>
0

> <PUBCHEM_ATOM_UDEF_STEREO_COUNT>
0

> <PUBCHEM_BOND_DEF_STEREO_COUNT>
0

> <PUBCHEM_BOND_UDEF_STEREO_COUNT>
0

> <PUBCHEM_CACTVS_TAUTO_COUNT>
3

> <PUBCHEM_COMPONENT_COUNT>
1

> <PUBCHEM_COMPOUND_CID>
588

> <PUBCHEM_CONFORMER_DIVERSEORDER>
1

> <PUBCHEM_CONFORMER_ID>
0000024C00000001

> <PUBCHEM_CONFORMER_RMSD>
0.4

> <PUBCHEM_COORDINATE_TYPE>
2
5
10

> <PUBCHEM_EFFECTIVE_ROTOR_COUNT>
0.4

> <PUBCHEM_FEATURE_SELFOVERLAP>
20.331

> <PUBCHEM_HEAVY_ATOM_COUNT>
8

> <PUBCHEM_ISOTOPIC_ATOM_COUNT>
0

> <PUBCHEM_MMFF94_ENERGY>
21.0703

> <PUBCHEM_MMFF94_PARTIAL_CHARGES>
10
1 -0.57
14 0.4
15 0.4
2 -0.79
3 -0.66
4 -0.85
5 0.43
6 0.55
7 0.72
8 0.37

> <PUBCHEM_PHARMACOPHORE_FEATURES>
4
1 1 acceptor
1 3 donor
1 4 donor
5 2 3 5 6 7 rings

> <PUBCHEM_SHAPE_FINGERPRINT>
16714656 1 18337395937367838164
20096714 4 18338517413368617104
21040471 1 18266740181874011844
23552423 10 18260554411567074382
29004967 10 17830455346741406355

> <PUBCHEM_SHAPE_MULTIPOLES>
143.82
2.66
1.59
0.57
0.65
0.16
0
-0.37
0
-0.81
0
-0.01
-0.02
0

> <PUBCHEM_SHAPE_SELFOVERLAP>
290.91

> <PUBCHEM_SHAPE_VOLUME>
87.1

> <RelativeEnergy>
0

> <StereoisomerIndex>
1

> <TautomerIndex>
2

> <LibDock Warning>
no hit found

> <ErrorText>
LibDock failed

$$$$
588
  SciTegic09112317153D

 15 15  0  0  0  0            999 V2000
    1.8560   -2.4740   -0.0040 O   0  0  0  1  0  0
   -0.4400    0.3080   -0.0040 N   0  0  0  1  0  0
    1.7960   -0.1670   -0.0040 N   0  0  0  1  0  0
    1.1270    2.1040   -0.0040 N   0  0  0  1  0  0
   -0.3070   -1.1370   -0.0040 C   0  0  0  1  0  0
    0.8400    0.8510   -0.0040 C   0  0  0  1  0  0
    1.2050   -1.3140   -0.0040 C   0  0  0  1  0  0
   -1.7200    1.0160   -0.0040 C   0  0  0  1  0  0
   -0.7520   -1.5670   -0.8890 H   0  0  0  1  0  0
   -0.7520   -1.5670    0.8820 H   0  0  0  1  0  0
   -1.7780    1.6610   -0.8800 H   0  0  0  1  0  0
   -2.5350    0.2930    0.0430 H   0  0  0  1  0  0
   -1.7850    1.6490    0.8810 H   0  0  0  1  0  0
    0.4230    2.8150   -0.0040 H   0  0  0  1  0  0
    2.8220   -2.4740   -0.0040 H   0  0  0  1  0  0
  1  7  1  0
  1 15  1  0
  2  5  1  0
  2  6  1  0
  2  8  1  0
  3  6  1  0
  3  7  2  0
  4  6  2  0
  4 14  1  0
  5  7  1  0
  5  9  1  0
  5 10  1  0
  8 11  1  0
  8 12  1  0
  8 13  1  0
M  END
> <Name>
588

> <AbsoluteEnergy>
15.5251

> <ConfNumber>
1

> <Ionization pH>
7.5

> <IonizationIndex>
1

> <NumberOfIonizations>
1

> <NumberOfStereoisomers>
1

> <NumberOfTautomers>
3

> <OBJECTID>
9223372045448052749

> <PUBCHEM_ATOM_DEF_STEREO_COUNT>
0

> <PUBCHEM_ATOM_UDEF_STEREO_COUNT>
0

> <PUBCHEM_BOND_DEF_STEREO_COUNT>
0

> <PUBCHEM_BOND_UDEF_STEREO_COUNT>
0

> <PUBCHEM_CACTVS_TAUTO_COUNT>
3

> <PUBCHEM_COMPONENT_COUNT>
1

> <PUBCHEM_COMPOUND_CID>
588

> <PUBCHEM_CONFORMER_DIVERSEORDER>
1

> <PUBCHEM_CONFORMER_ID>
0000024C00000001

> <PUBCHEM_CONFORMER_RMSD>
0.4

> <PUBCHEM_COORDINATE_TYPE>
2
5
10

> <PUBCHEM_EFFECTIVE_ROTOR_COUNT>
0.4

> <PUBCHEM_FEATURE_SELFOVERLAP>
20.331

> <PUBCHEM_HEAVY_ATOM_COUNT>
8

> <PUBCHEM_ISOTOPIC_ATOM_COUNT>
0

> <PUBCHEM_MMFF94_ENERGY>
21.0703

> <PUBCHEM_MMFF94_PARTIAL_CHARGES>
10
1 -0.57
14 0.4
15 0.4
2 -0.79
3 -0.66
4 -0.85
5 0.43
6 0.55
7 0.72
8 0.37

> <PUBCHEM_PHARMACOPHORE_FEATURES>
4
1 1 acceptor
1 3 donor
1 4 donor
5 2 3 5 6 7 rings

> <PUBCHEM_SHAPE_FINGERPRINT>
16714656 1 18337395937367838164
20096714 4 18338517413368617104
21040471 1 18266740181874011844
23552423 10 18260554411567074382
29004967 10 17830455346741406355

> <PUBCHEM_SHAPE_MULTIPOLES>
143.82
2.66
1.59
0.57
0.65
0.16
0
-0.37
0
-0.81
0
-0.01
-0.02
0

> <PUBCHEM_SHAPE_SELFOVERLAP>
290.91

> <PUBCHEM_SHAPE_VOLUME>
87.1

> <RelativeEnergy>
0

> <StereoisomerIndex>
1

> <TautomerIndex>
3

> <LibDock Warning>
no hit found

> <ErrorText>
LibDock failed

$$$$
5429
  SciTegic09112317153D

 22 23  0  0  0  0            999 V2000
   -1.9280    2.2660    0.0900 O   0  0  0  1  0  0
   -2.8120   -2.1470    0.0140 O   0  0  0  1  0  0
    1.0550    1.5450    0.0080 N   0  0  0  1  0  0
   -0.6230   -1.6310   -0.0250 N   0  0  0  1  0  0
   -2.4220    0.0550    0.0530 N   0  0  0  1  0  0
    1.6950   -0.6250   -0.0600 N   0  3  0  1  0  0
   -0.1110    0.7750    0.0160 C   0  0  0  1  0  0
    0.3560   -0.5020   -0.0230 C   0  0  0  1  0  0
   -1.5450    1.1190    0.0570 C   0  0  0  1  0  0
   -1.9780   -1.2700    0.0140 C   0  0  0  1  0  0
    2.1820    0.6850   -0.0410 C   0  0  0  1  0  0
   -0.1930   -3.0430   -0.0640 C   0  0  0  1  0  0
    1.1110    3.0140    0.0470 C   0  0  0  1  0  0
    3.2090    1.0190   -0.0600 H   0  0  0  1  0  0
   -0.4160   -3.4590   -1.0490 H   0  0  0  1  0  0
    0.8610   -3.1060    0.2030 H   0  0  0  1  0  0
   -0.7580   -3.6110    0.6740 H   0  0  0  1  0  0
    0.1370    3.5000    0.0840 H   0  0  0  1  0  0
    1.6310    3.3810   -0.8380 H   0  0  0  1  0  0
    1.6780    3.3340    0.9220 H   0  0  0  1  0  0
   -3.4060    0.2380    0.0780 H   0  0  0  1  0  0
    2.2770   -1.5370   -0.0980 H   0  0  0  1  0  0
  1  9  2  0
  2 10  2  0
  3  7  1  0
  3 11  1  0
  3 13  1  0
  4  8  1  0
  4 10  1  0
  4 12  1  0
  5  9  1  0
  5 10  1  0
  5 21  1  0
  6  8  1  0
  6 11  2  0
  6 22  1  0
  7  8  2  0
  7  9  1  0
 11 14  1  0
 12 15  1  0
 12 16  1  0
 12 17  1  0
 13 18  1  0
 13 19  1  0
 13 20  1  0
M  CHG  1   6   1
M  END
> <Name>
5429

> <AbsoluteEnergy>
68.4482

> <ConfNumber>
1

> <Ionization pH>
7.5

> <IonizationIndex>
1

> <NumberOfIonizations>
1

> <NumberOfStereoisomers>
1

> <NumberOfTautomers>
3

> <OBJECTID>
9223372062627921933

> <PUBCHEM_ATOM_DEF_STEREO_COUNT>
0

> <PUBCHEM_ATOM_UDEF_STEREO_COUNT>
0

> <PUBCHEM_BOND_DEF_STEREO_COUNT>
0

> <PUBCHEM_BOND_UDEF_STEREO_COUNT>
0

> <PUBCHEM_CACTVS_TAUTO_COUNT>
3

> <PUBCHEM_COMPONENT_COUNT>
1

> <PUBCHEM_COMPOUND_CID>
5429

> <PUBCHEM_CONFORMER_DIVERSEORDER>
1

> <PUBCHEM_CONFORMER_ID>
153500000001

> <PUBCHEM_CONFORMER_RMSD>
0.4

> <PUBCHEM_COORDINATE_TYPE>
2
5
10

> <PUBCHEM_EFFECTIVE_ROTOR_COUNT>
0

> <PUBCHEM_FEATURE_SELFOVERLAP>
30.562

> <PUBCHEM_HEAVY_ATOM_COUNT>
13

> <PUBCHEM_ISOTOPIC_ATOM_COUNT>
0

> <PUBCHEM_MMFF94_ENERGY>
21.7734

> <PUBCHEM_MMFF94_PARTIAL_CHARGES>
15
1 -0.57
10 0.69
11 0.04
12 0.3
13 0.26
14 0.15
15 0.37
2 -0.57
3 0.05
4 -0.42
5 -0.49
6 -0.57
7 -0.24
8 0.29
9 0.71

> <PUBCHEM_PHARMACOPHORE_FEATURES>
6
1 1 acceptor
1 2 acceptor
1 5 donor
3 3 6 11 cation
5 3 6 7 8 11 rings
6 4 5 7 8 9 10 rings

> <PUBCHEM_SHAPE_FINGERPRINT>
10967382 1 18410575050308634791
11132069 177 18410849967329317976
11206711 2 18336828713842816991
12382932 28 18411417284837198562
12423570 1 10933641856949270793
12524768 44 18198628735142129103
16945 1 18410855438732615493
193761 8 17978510063425417733
20588541 1 18410294670553846381
21040471 1 16609134911866691874
21501502 16 18265054819764530141
22802520 49 18057906653140570670
2334 1 18050287269250829261
23402655 69 18268977731851385845
23463225 33 18335134263809337906
23552423 10 18263644133418863773
23559900 14 18342748438378613308
241688 4 17906172854131781081
2748010 2 18194116554228058445
5084963 1 17986679383301531922
528886 8 18411414012151188178
53812653 166 18342452664448088544
63268167 104 18411139095663443561
66348 1 18411698755481894930

> <PUBCHEM_SHAPE_MULTIPOLES>
235.87
3.94
2.41
0.57
0.13
0.19
0
-0.13
0
0.01
0
-0.02
-0.02
0

> <PUBCHEM_SHAPE_SELFOVERLAP>
510.074

> <PUBCHEM_SHAPE_VOLUME>
130.9

> <RelativeEnergy>
0

> <StereoisomerIndex>
1

> <TautomerIndex>
1

> <LibDock Warning>
no hit found

> <ErrorText>
LibDock failed

$$$$
9259
  SciTegic09112317153D

 10 10  0  0  0  0            999 V2000
   -1.1250    1.3650    0.0000 N   0  0  0  1  0  0
   -1.7620    0.1640    0.0000 N   0  0  0  1  0  0
    1.0350    0.2420    0.0000 C   0  0  0  1  0  0
    0.3810   -0.9920    0.0000 C   0  0  0  1  0  0
    0.2480    1.4020    0.0000 C   0  0  0  1  0  0
   -1.0220   -0.9920    0.0000 C   0  0  0  1  0  0
    2.1130    0.3030    0.0000 H   0  0  0  1  0  0
    0.9370   -1.9180    0.0000 H   0  0  0  1  0  0
    0.7380    2.3650    0.0000 H   0  0  0  1  0  0
   -1.5430   -1.9390    0.0000 H   0  0  0  1  0  0
  1  2  2  0
  1  5  1  0
  2  6  1  0
  3  4  1  0
  3  5  2  0
  3  7  1  0
  4  6  2  0
  4  8  1  0
  5  9  1  0
  6 10  1  0
M  END
> <Name>
9259

> <AbsoluteEnergy>
20.4639

> <ConfNumber>
1

> <Ionization pH>
7.5

> <IonizationIndex>
1

> <NumberOfIonizations>
1

> <NumberOfStereoisomers>
1

> <NumberOfTautomers>
1

> <OBJECTID>
9223372088397725709

> <PUBCHEM_ATOM_DEF_STEREO_COUNT>
0

> <PUBCHEM_ATOM_UDEF_STEREO_COUNT>
0

> <PUBCHEM_BOND_DEF_STEREO_COUNT>
0

> <PUBCHEM_BOND_UDEF_STEREO_COUNT>
0

> <PUBCHEM_CACTVS_TAUTO_COUNT>
1

> <PUBCHEM_COMPONENT_COUNT>
1

> <PUBCHEM_COMPOUND_CID>
9259

> <PUBCHEM_CONFORMER_DIVERSEORDER>
1

> <PUBCHEM_CONFORMER_ID>
0000242B00000001

> <PUBCHEM_CONFORMER_RMSD>
0.4

> <PUBCHEM_COORDINATE_TYPE>
2
5
10

> <PUBCHEM_EFFECTIVE_ROTOR_COUNT>
0

> <PUBCHEM_FEATURE_SELFOVERLAP>
16.818

> <PUBCHEM_HEAVY_ATOM_COUNT>
6

> <PUBCHEM_ISOTOPIC_ATOM_COUNT>
0

> <PUBCHEM_MMFF94_ENERGY>
13.8566

> <PUBCHEM_MMFF94_PARTIAL_CHARGES>
10
1 -0.31
10 0.15
2 -0.31
3 -0.15
4 -0.15
5 0.16
6 0.16
7 0.15
8 0.15
9 0.15

> <PUBCHEM_PHARMACOPHORE_FEATURES>
3
1 1 acceptor
1 2 acceptor
6 1 2 3 4 5 6 rings

> <PUBCHEM_SHAPE_FINGERPRINT>
16714656 1 18338811060625373766
20096714 4 18410858737230419680
21015797 1 9295293836996102148
21040471 1 18410855498788317605

> <PUBCHEM_SHAPE_MULTIPOLES>
113.52
1.54
1.5
0.59
0
0
0
0.01
0
0
0
0
-0.04
0

> <PUBCHEM_SHAPE_SELFOVERLAP>
229.057

> <PUBCHEM_SHAPE_VOLUME>
65.7

> <RelativeEnergy>
0

> <StereoisomerIndex>
1

> <TautomerIndex>
1

> <LibDock Warning>
no hit found

> <ErrorText>
LibDock failed

$$$$
10189
  SciTegic09112317153D

 25 26  0  0  0  0            999 V2000
    1.2420    1.3310   -0.5320 O   0  0  0  1  0  0
   -3.4300    0.3950   -0.1670 O   0  0  0  1  0  0
   -0.2650   -2.9100    1.1570 O   0  0  0  1  0  0
    2.3890   -2.2540    0.8930 O   0  0  0  1  0  0
    0.5320   -0.8060    0.3170 C   0  0  0  1  0  0
    0.2410    0.4860   -0.1970 C   0  0  0  1  0  0
   -0.5220   -1.6890    0.6700 C   0  0  0  1  0  0
   -1.1050    0.8890   -0.3610 C   0  0  0  1  0  0
    1.9580   -1.2040    0.4760 C   0  0  0  1  0  0
   -2.1560    0.0110   -0.0110 C   0  0  0  1  0  0
    2.5490    1.0200   -0.4050 C   0  0  0  1  0  0
   -1.8640   -1.2750    0.5020 C   0  0  0  1  0  0
    2.9460   -0.1820    0.0730 C   0  0  0  1  0  0
    3.6050    2.0180   -0.7990 C   0  0  0  1  0  0
   -3.6740    1.7100   -0.6480 C   0  0  0  1  0  0
   -1.3280    1.8700   -0.7530 H   0  0  0  1  0  0
   -2.6700   -1.9430    0.7690 H   0  0  0  1  0  0
    3.9980   -0.4050    0.1630 H   0  0  0  1  0  0
    3.2210    2.8470   -1.3940 H   0  0  0  1  0  0
    4.3840    1.5240   -1.3790 H   0  0  0  1  0  0
    4.0700    2.4360    0.0930 H   0  0  0  1  0  0
   -4.7500    1.8320   -0.7740 H   0  0  0  1  0  0
   -3.1850    2.4160    0.0230 H   0  0  0  1  0  0
   -3.2110    1.8060   -1.6310 H   0  0  0  1  0  0
   -1.0000   -3.4920    1.3890 H   0  0  0  1  0  0
  1  6  1  0
  1 11  1  0
  2 10  1  0
  2 15  1  0
  3  7  1  0
  3 25  1  0
  4  9  2  0
  5  6  2  0
  5  7  1  0
  5  9  1  0
  6  8  1  0
  7 12  2  0
  8 10  2  0
  8 16  1  0
  9 13  1  0
 10 12  1  0
 11 13  2  0
 11 14  1  0
 12 17  1  0
 13 18  1  0
 14 19  1  0
 14 20  1  0
 14 21  1  0
 15 22  1  0
 15 23  1  0
 15 24  1  0
M  END
> <Name>
10189

> <AbsoluteEnergy>
24.7118

> <ConfNumber>
1

> <Ionization pH>
7.5

> <IonizationIndex>
1

> <NumberOfIonizations>
1

> <NumberOfStereoisomers>
1

> <NumberOfTautomers>
2

> <OBJECTID>
9223372092692693005

> <PUBCHEM_ATOM_DEF_STEREO_COUNT>
0

> <PUBCHEM_ATOM_UDEF_STEREO_COUNT>
0

> <PUBCHEM_BOND_DEF_STEREO_COUNT>
0

> <PUBCHEM_BOND_UDEF_STEREO_COUNT>
0

> <PUBCHEM_CACTVS_TAUTO_COUNT>
14

> <PUBCHEM_COMPONENT_COUNT>
1

> <PUBCHEM_COMPOUND_CID>
10189

> <PUBCHEM_CONFORMER_DIVERSEORDER>
1
2

> <PUBCHEM_CONFORMER_ID>
000027CD00000001

> <PUBCHEM_CONFORMER_RMSD>
0.4

> <PUBCHEM_COORDINATE_TYPE>
2
5
10

> <PUBCHEM_EFFECTIVE_ROTOR_COUNT>
1

> <PUBCHEM_FEATURE_SELFOVERLAP>
30.474

> <PUBCHEM_HEAVY_ATOM_COUNT>
15

> <PUBCHEM_ISOTOPIC_ATOM_COUNT>
0

> <PUBCHEM_MMFF94_ENERGY>
48.386

> <PUBCHEM_MMFF94_PARTIAL_CHARGES>
19
1 -0.16
10 0.08
11 -0.06
12 -0.15
13 -0.14
14 0.14
15 0.28
16 0.15
17 0.15
18 0.15
2 -0.36
22 0.45
3 -0.53
4 -0.57
5 0.09
6 0.08
7 0.08
8 -0.15
9 0.47

> <PUBCHEM_PHARMACOPHORE_FEATURES>
6
1 1 acceptor
1 2 acceptor
1 3 donor
1 4 acceptor
6 1 5 6 9 11 13 rings
6 5 6 7 8 10 12 rings

> <PUBCHEM_SHAPE_FINGERPRINT>
10411042 1 17185877195398853319
10608611 8 18409729577586220429
10967382 1 18410573937922706597
10980938 120 18410012139031213121
11471102 20 18265891350729408037
11680986 33 18409174311334488650
13140716 1 18408887308829683883
13380535 21 18337400434055970820
13380535 76 18339075003329486022
13380536 305 18339084778638128518
13897977 150 18409727352871957669
14251717 144 18339353064134127245
14325111 11 18410855473345665377
14648413 74 18409452466174677618
14897335 6 18339919410921545261
15442244 35 18196372507243541921
15536298 74 18343582928099563492
15775835 57 18409171038411114444
16945 1 18122626316653240963
18186145 218 18271250421811050317
193761 8 18338799030164008326
20510252 161 18054797448731122433
20645477 70 18338793395725591775
21501502 16 18338790221127782670
2334 1 18410855503315315531
23463225 33 18264487282580347419
23559900 14 18200039568572004412
25 1 18336264518670593877
2748010 2 18409174324214005271
3071541 12 18339928103929882708
528886 8 18411132515615193059
53812653 166 18342173405632414992
63268167 104 18341336617101153953
7364860 26 18341895160850678502
84936 182 18202276979142734321

> <PUBCHEM_SHAPE_MULTIPOLES>
285.22
5.41
2.82
0.59
1.9
0.77
0
-3.71
0
-0.73
0
-0.01
-0.02
0

> <PUBCHEM_SHAPE_SELFOVERLAP>
619.989

> <PUBCHEM_SHAPE_VOLUME>
156

> <RelativeEnergy>
0

> <StereoisomerIndex>
1

> <TautomerIndex>
1

> <LibDock Warning>
no hit found

> <ErrorText>
LibDock failed

$$$$
13250
  SciTegic09112317153D

 23 23  0  0  0  0            999 V2000
    0.8920    1.4470   -0.6080 O   0  0  0  1  0  0
   -3.3370   -0.9770   -0.3340 O   0  5  0  1  0  0
   -0.1150   -4.1740    1.1760 O   0  0  0  1  0  0
   -2.7090   -3.4380    0.6120 O   0  0  0  1  0  0
    2.4670   -0.0820    0.1380 O   0  0  0  1  0  0
    0.2290   -0.6830    0.0280 C   0  0  0  1  0  0
    0.5400   -2.0430    0.5300 C   0  0  0  1  0  0
   -1.1900   -0.3640   -0.2700 C   0  0  0  1  0  0
   -2.1690   -1.2720   -0.0810 C   0  0  0  1  0  0
   -0.4290   -2.9610    0.7240 C   0  0  0  1  0  0
   -1.8360   -2.6190    0.4310 C   0  0  0  1  0  0
    1.2050    0.2380   -0.1500 C   0  0  0  1  0  0
    0.4050    2.3040    0.4140 C   0  0  0  1  0  0
   -0.5830    3.3040   -0.1840 C   0  0  0  1  0  0
    1.5610   -2.3170    0.7510 H   0  0  0  1  0  0
   -1.4540    0.6140   -0.6490 H   0  0  0  1  0  0
   -0.0810    1.6880    1.1720 H   0  0  0  1  0  0
    1.2550    2.8220    0.8580 H   0  0  0  1  0  0
   -1.0980    3.8580    0.6020 H   0  0  0  1  0  0
   -0.0700    4.0090   -0.8390 H   0  0  0  1  0  0
   -1.3410    2.7890   -0.7770 H   0  0  0  1  0  0
   -0.8160   -4.8240    1.3120 H   0  0  0  1  0  0
    3.1620    0.5770    0.0100 H   0  0  0  1  0  0
  1 12  1  0
  1 13  1  0
  2  9  1  0
  3 10  1  0
  3 22  1  0
  4 11  2  0
  5 12  1  0
  5 23  1  0
  6  7  1  0
  6  8  1  0
  6 12  2  0
  7 10  2  0
  7 15  1  0
  8  9  2  0
  8 16  1  0
  9 11  1  0
 10 11  1  0
 13 14  1  0
 13 17  1  0
 13 18  1  0
 14 19  1  0
 14 20  1  0
 14 21  1  0
M  CHG  1   2  -1
M  END
> <Name>
13250

> <AbsoluteEnergy>
11.3716

> <ConfNumber>
1

> <Ionization pH>
7.5

> <IonizationIndex>
1

> <NumberOfIonizations>
1

> <NumberOfStereoisomers>
1

> <NumberOfTautomers>
2

> <OBJECTID>
9223372118462496781

> <PUBCHEM_ATOM_DEF_STEREO_COUNT>
0

> <PUBCHEM_ATOM_UDEF_STEREO_COUNT>
0

> <PUBCHEM_BOND_DEF_STEREO_COUNT>
0

> <PUBCHEM_BOND_UDEF_STEREO_COUNT>
0

> <PUBCHEM_CACTVS_TAUTO_COUNT>
14

> <PUBCHEM_COMPONENT_COUNT>
1

> <PUBCHEM_COMPOUND_CID>
13250

> <PUBCHEM_CONFORMER_DIVERSEORDER>
1
4
2
3
5
6
7

> <PUBCHEM_CONFORMER_ID>
000033C200000001

> <PUBCHEM_CONFORMER_RMSD>
0.6

> <PUBCHEM_COORDINATE_TYPE>
2
5
10

> <PUBCHEM_EFFECTIVE_ROTOR_COUNT>
3

> <PUBCHEM_FEATURE_SELFOVERLAP>
25.381

> <PUBCHEM_HEAVY_ATOM_COUNT>
14

> <PUBCHEM_ISOTOPIC_ATOM_COUNT>
0

> <PUBCHEM_MMFF94_ENERGY>
31.9185

> <PUBCHEM_MMFF94_PARTIAL_CHARGES>
18
1 -0.43
10 0.08
11 0.08
12 0.63
13 0.28
15 0.15
16 0.15
2 -0.53
22 0.45
23 0.45
24 0.45
3 -0.53
4 -0.53
5 -0.57
6 0.09
7 -0.15
8 -0.15
9 0.08

> <PUBCHEM_PHARMACOPHORE_FEATURES>
5
1 2 donor
1 3 donor
1 4 donor
1 5 acceptor
6 6 7 8 9 10 11 rings

> <PUBCHEM_SHAPE_FINGERPRINT>
10130415 120 18335135341424279082
10608611 8 18337389448015125721
10967382 1 18410575067514864740
10980938 120 18409167692710549699
11471102 20 18410289181859968317
116883 192 17984428438333823892
12932764 1 17416406678455468155
13380535 21 18335710497869830311
13380535 76 18411418431941885775
13571099 22 18271810103014635054
13922767 16 18411134702122902673
14144814 61 18412266116730693795
14325111 11 18266458900281540837
14648413 74 18336549429325618889
14897335 6 18412822516917114751
15442244 35 18340206276250881121
15775835 57 18408326613554549767
16945 1 18338797917978001030
18186145 218 18341897347052329253
20606313 2 18411136913635349773
20645477 70 18341049614686636919
20871998 22 18126567808637107246
21501502 16 18337667645705046743
23402539 116 18128805361827662623
23402655 69 18343295943070384389
25 1 18334856129794905062
2748010 2 17761216913839594300
5104073 3 18410012130937080139
528886 8 18411695517182172378
53812653 166 18341327890002005952
63268167 104 18411143540833145800
7364860 26 18342458170785968360
74978 22 18411984684656391011
7832392 63 18341047501393395805

> <PUBCHEM_SHAPE_MULTIPOLES>
258.77
6.83
2.11
0.58
6.36
0.34
0
1.39
-0.01
-0.92
0
0.03
0
0

> <PUBCHEM_SHAPE_SELFOVERLAP>
541.051

> <PUBCHEM_SHAPE_VOLUME>
147.5

> <RelativeEnergy>
0

> <StereoisomerIndex>
1

> <TautomerIndex>
2

> <LibDock Warning>
no hit found

> <ErrorText>
LibDock failed

$$$$
24083
  SciTegic09112317153D

  5  4  0  0  0  0            999 V2000
    0.0170    0.0260    0.0000 S   0  0  0  1  0  0
   -0.4660   -0.7060    1.2600 O   0  5  0  1  0  0
   -0.4660   -0.7060   -1.2600 O   0  5  0  1  0  0
   -0.5550    1.3610    0.0000 O   0  0  0  1  0  0
    1.4700    0.0260    0.0000 O   0  0  0  1  0  0
  1  2  1  0
  1  3  1  0
  1  4  2  0
  1  5  2  0
M  CHG  2   2  -1   3  -1
M  END
> <Name>
24083

> <AbsoluteEnergy>
0.0731364

> <ConfNumber>
1

> <Ionization pH>
7.5

> <IonizationIndex>
1

> <NumberOfIonizations>
1

> <NumberOfStereoisomers>
1

> <NumberOfTautomers>
1

> <OBJECTID>
9223372135642365965

> <PUBCHEM_ATOM_DEF_STEREO_COUNT>
0

> <PUBCHEM_ATOM_UDEF_STEREO_COUNT>
0

> <PUBCHEM_BOND_DEF_STEREO_COUNT>
0

> <PUBCHEM_BOND_UDEF_STEREO_COUNT>
0

> <PUBCHEM_CACTVS_COMPLEXITY>
62.2

> <PUBCHEM_CACTVS_HBOND_ACCEPTOR>
4

> <PUBCHEM_CACTVS_HBOND_DONOR>
0

> <PUBCHEM_CACTVS_ROTATABLE_BOND>
0

> <PUBCHEM_CACTVS_SUBSKEYS>
AAADcQAAOABAACAAAAAAAAAAAAAAAAAAAAAAAAAAAAAAAAAAAAAAAAAAAAAAAAAAAAAAAAAAAAAAAAAAADAAAAAAAAAAAAAAAAAAAAAAAAAAAAAAAAAAAAAAAAAAAAAAAAAAAAAAAAAAAAAAAAAAAAAAAA==

> <PUBCHEM_CACTVS_TAUTO_COUNT>
1

> <PUBCHEM_CACTVS_TPSA>
88.6

> <PUBCHEM_COMPONENT_COUNT>
2

> <PUBCHEM_COMPOUND_CANONICALIZED>
1

> <PUBCHEM_COMPOUND_CID>
24083

> <PUBCHEM_COORDINATE_TYPE>
1
5
255

> <PUBCHEM_EXACT_MASS>
119.9367713

> <PUBCHEM_HEAVY_ATOM_COUNT>
6

> <PUBCHEM_ISOTOPIC_ATOM_COUNT>
0

> <PUBCHEM_IUPAC_CAS_NAME>
magnesium;sulfate

> <PUBCHEM_IUPAC_INCHI>
InChI=1S/Mg.H2O4S/c;1-5(2,3)4/h;(H2,1,2,3,4)/q+2;/p-2

> <PUBCHEM_IUPAC_INCHIKEY>
CSNNHWWHGAXBCP-UHFFFAOYSA-L

> <PUBCHEM_IUPAC_NAME>
magnesium;sulfate

> <PUBCHEM_IUPAC_NAME_MARKUP>
magnesium;sulfate

> <PUBCHEM_IUPAC_OPENEYE_NAME>
magnesium;sulfate

> <PUBCHEM_IUPAC_SYSTEMATIC_NAME>
magnesium;sulfate

> <PUBCHEM_IUPAC_TRADITIONAL_NAME>
magnesium;sulfate

> <PUBCHEM_MOLECULAR_FORMULA>
MgO4S

> <PUBCHEM_MOLECULAR_WEIGHT>
120.37

> <PUBCHEM_MONOISOTOPIC_WEIGHT>
119.9367713

> <PUBCHEM_OPENEYE_CAN_SMILES>
[O-]S(=O)(=O)[O-].[Mg+2]

> <PUBCHEM_OPENEYE_ISO_SMILES>
[O-]S(=O)(=O)[O-].[Mg+2]

> <PUBCHEM_TOTAL_CHARGE>
0

> <RelativeEnergy>
0

> <StereoisomerIndex>
1

> <TautomerIndex>
1

> <LibDock Warning>
no hit found

> <ErrorText>
LibDock failed

$$$$
65727
  SciTegic09112317153D

 73 78  0  0  0  0            999 V2000
    6.3300    1.8860   -1.7270 O   0  0  0  1  0  0
   -3.2550   -0.7500   -0.5360 N   0  3  2  1  0  0
   -0.4220    0.3220    0.9040 C   0  0  2  1  0  0
   -1.7450   -0.3560    1.2970 C   0  0  2  1  0  0
    0.3030   -0.8690    0.2620 C   0  0  2  1  0  0
   -2.0240   -1.3390    0.1500 C   0  0  2  1  0  0
    1.6490   -0.4410   -0.3440 C   0  0  1  1  0  0
   -0.7520   -1.4040   -0.7060 C   0  0  0  1  0  0
   -2.9980    0.5300    1.4400 C   0  0  1  1  0  0
    2.5450    0.1600    0.7630 C   0  0  2  1  0  0
    0.4210    0.7950    2.0900 C   0  0  0  1  0  0
   -4.0530   -0.2700    0.6770 C   0  0  1  1  0  0
    1.8070    1.2450    1.5900 C   0  0  0  1  0  0
    3.8780    0.6630    0.1340 C   0  0  2  1  0  0
   -0.6450    1.4490   -0.1170 C   0  0  0  1  0  0
    2.3360   -1.6500   -1.0000 C   0  0  0  1  0  0
   -5.2750    0.5240    0.2060 C   0  0  0  1  0  0
   -4.0870   -1.7320   -1.3610 C   0  0  0  1  0  0
   -3.3940    0.7500    2.8970 C   0  0  0  1  0  0
    4.5210   -0.4290   -0.7190 C   0  0  0  1  0  0
   -5.3650   -1.0160   -1.8380 C   0  0  2  1  0  0
    4.8940    1.0720    1.2260 C   0  0  0  1  0  0
   -6.1460   -0.4010   -0.6600 C   0  0  0  1  0  0
    3.8130   -1.4470   -1.2520 C   0  0  0  1  0  0
    3.5750    1.8670   -0.7710 C   0  0  0  1  0  0
    6.0220   -0.3740   -0.9590 C   0  0  0  1  0  0
    6.2380    1.6000    0.6820 C   0  0  0  1  0  0
    6.6620    0.9970   -0.6760 C   0  0  2  1  0  0
   -6.2520   -1.9610   -2.6560 C   0  0  0  1  0  0
   -1.5970   -0.9400    2.1970 H   0  0  0  1  0  0
    0.4950   -1.6260    1.0120 H   0  0  0  1  0  0
   -2.2500   -2.3130    0.5610 H   0  0  0  1  0  0
    1.4730    0.3120   -1.1140 H   0  0  0  1  0  0
   -0.5340   -2.4100   -1.0360 H   0  0  0  1  0  0
   -0.8280   -0.7800   -1.5830 H   0  0  0  1  0  0
   -2.8650    1.4880    0.9620 H   0  0  0  1  0  0
    2.7850   -0.6480    1.4580 H   0  0  0  1  0  0
    0.5400   -0.0080    2.8230 H   0  0  0  1  0  0
   -0.0770    1.6130    2.6070 H   0  0  0  1  0  0
   -4.3760   -1.1160    1.2690 H   0  0  0  1  0  0
    1.6890    2.1510    0.9980 H   0  0  0  1  0  0
    2.4050    1.5280    2.4560 H   0  0  0  1  0  0
   -1.2750    1.1280   -0.9450 H   0  0  0  1  0  0
    0.3060    1.7850   -0.5330 H   0  0  0  1  0  0
   -1.1230    2.3060    0.3530 H   0  0  0  1  0  0
    2.2300   -2.5240   -0.3580 H   0  0  0  1  0  0
    1.8400   -1.8960   -1.9390 H   0  0  0  1  0  0
   -5.8430    0.8900    1.0630 H   0  0  0  1  0  0
   -4.9650    1.3970   -0.3700 H   0  0  0  1  0  0
   -4.3440   -2.6070   -0.7630 H   0  0  0  1  0  0
   -3.5070   -2.0900   -2.2140 H   0  0  0  1  0  0
   -4.3090    1.3330    2.9850 H   0  0  0  1  0  0
   -2.6070    1.2820    3.4320 H   0  0  0  1  0  0
   -3.5550   -0.2030    3.4010 H   0  0  0  1  0  0
   -5.0640   -0.2010   -2.5000 H   0  0  0  1  0  0
    4.4740    1.8290    1.8860 H   0  0  0  1  0  0
    5.0890    0.2070    1.8610 H   0  0  0  1  0  0
   -7.0040    0.1560   -1.0340 H   0  0  0  1  0  0
   -6.5480   -1.2000   -0.0350 H   0  0  0  1  0  0
    4.3170   -2.1600   -1.8880 H   0  0  0  1  0  0
    4.0910    2.7660   -0.4380 H   0  0  0  1  0  0
    2.5050    2.0820   -0.7810 H   0  0  0  1  0  0
    3.8840    1.6650   -1.7970 H   0  0  0  1  0  0
    6.2460   -0.6890   -1.9790 H   0  0  0  1  0  0
    6.4920   -1.1140   -0.3110 H   0  0  0  1  0  0
    7.0100    1.3770    1.4220 H   0  0  0  1  0  0
    6.2090    2.6890    0.6270 H   0  0  0  1  0  0
    7.7480    0.9060   -0.7100 H   0  0  0  1  0  0
   -7.1360   -1.4380   -3.0210 H   0  0  0  1  0  0
   -5.7030   -2.3670   -3.5050 H   0  0  0  1  0  0
   -6.5880   -2.7960   -2.0430 H   0  0  0  1  0  0
    6.7440    1.5430   -2.5360 H   0  0  0  1  0  0
   -2.9700    0.0930   -1.1500 H   0  0  0  1  0  0
  1 28  1  0
  1 72  1  0
  2  6  1  0
  2 12  1  0
  2 18  1  0
  2 73  1  0
  3  4  1  0
  3  5  1  0
  3 11  1  0
  3 15  1  0
  4  6  1  0
  4  9  1  0
  4 30  1  0
  5  7  1  0
  5  8  1  0
  5 31  1  0
  6  8  1  0
  6 32  1  0
  7 10  1  0
  7 16  1  0
  7 33  1  0
  8 34  1  0
  8 35  1  0
  9 12  1  0
  9 19  1  0
  9 36  1  0
 10 13  1  0
 10 14  1  0
 10 37  1  0
 11 13  1  0
 11 38  1  0
 11 39  1  0
 12 17  1  0
 12 40  1  0
 13 41  1  0
 13 42  1  0
 14 20  1  0
 14 22  1  0
 14 25  1  0
 15 43  1  0
 15 44  1  0
 15 45  1  0
 16 24  1  0
 16 46  1  0
 16 47  1  0
 17 23  1  0
 17 48  1  0
 17 49  1  0
 18 21  1  0
 18 50  1  0
 18 51  1  0
 19 52  1  0
 19 53  1  0
 19 54  1  0
 20 24  2  0
 20 26  1  0
 21 23  1  0
 21 29  1  0
 21 55  1  0
 22 27  1  0
 22 56  1  0
 22 57  1  0
 23 58  1  0
 23 59  1  0
 24 60  1  0
 25 61  1  0
 25 62  1  0
 25 63  1  0
 26 28  1  0
 26 64  1  0
 26 65  1  0
 27 28  1  0
 27 66  1  0
 27 67  1  0
 28 68  1  0
 29 69  1  0
 29 70  1  0
 29 71  1  0
M  CHG  1   2   1
M  END
> <Name>
65727

> <AbsoluteEnergy>
21.1988

> <ConfNumber>
1

> <Ionization pH>
7.54_P

> <IonizationIndex>
1

> <NumberOfIonizations>
2

> <NumberOfStereoisomers>
1

> <NumberOfTautomers>
1

> <OBJECTID>
9223372157117202445

> <PUBCHEM_ATOM_DEF_STEREO_COUNT>
11

> <PUBCHEM_ATOM_UDEF_STEREO_COUNT>
0

> <PUBCHEM_BOND_DEF_STEREO_COUNT>
0

> <PUBCHEM_BOND_UDEF_STEREO_COUNT>
0

> <PUBCHEM_CACTVS_TAUTO_COUNT>
1

> <PUBCHEM_COMPONENT_COUNT>
1

> <PUBCHEM_COMPOUND_CID>
65727

> <PUBCHEM_CONFORMER_DIVERSEORDER>
1

> <PUBCHEM_CONFORMER_ID>
000100BF00000001

> <PUBCHEM_CONFORMER_RMSD>
0.8

> <PUBCHEM_COORDINATE_TYPE>
2
5
10

> <PUBCHEM_EFFECTIVE_ROTOR_COUNT>
2.6

> <PUBCHEM_FEATURE_SELFOVERLAP>
46.106

> <PUBCHEM_HEAVY_ATOM_COUNT>
29

> <PUBCHEM_ISOTOPIC_ATOM_COUNT>
0

> <PUBCHEM_MMFF94_ENERGY>
85.93

> <PUBCHEM_MMFF94_PARTIAL_CHARGES>
13
1 -0.68
12 0.27
14 0.14
16 0.14
18 0.27
2 -0.81
20 -0.28
24 -0.29
26 0.14
28 0.28
6 0.27
60 0.15
72 0.4

> <PUBCHEM_PHARMACOPHORE_FEATURES>
9
1 1 acceptor
1 1 donor
1 2 cation
5 2 4 6 9 12 rings
5 3 4 5 6 8 rings
6 14 20 22 26 27 28 rings
6 2 12 17 18 21 23 rings
6 3 5 7 10 11 13 rings
6 7 10 14 16 20 24 rings

> <PUBCHEM_SHAPE_FINGERPRINT>
10 15 17967816050773926833
10165383 225 18040722472626803750
10411042 1 17904479603044024770
10595046 47 18411136926594182697
10906281 52 18130239193804698139
11135609 187 18410011069800952856
11524674 6 15482669096286716573
11578080 2 13624683625764403908
11796584 16 14404895912454887782
12107183 9 17618503186213601208
12166972 35 18040157309705142757
12236239 1 18187082836653296707
12403259 415 18040709226145757583
12596602 18 17821726130791965435
12730499 353 18334017194503234954
12788726 201 17703232814712117465
13533116 47 18262234417810426098
13782708 43 14404320924124886957
14294032 229 15768395794373151763
14341114 176 18408606942218188443
14394314 77 18411143515729142913
14528608 73 18410575093975830012
14790565 3 18339082575203763808
14840074 17 18060135457746592221
14856354 85 16415482683785854533
14933364 13 18409451384016979117
15183329 4 16702310061071689020
15196674 1 18411134706465323371
15276724 80 18337953385954008805
15685185 35 17972888244206360588
15840311 113 18260834803874397476
15961568 22 18334579040101863988
16993427 108 16809806930294838322
18335252 98 18333737940108915075
18608769 82 18336549438316974059
18681886 176 18340763827246087624
19611394 137 17896896549754256683
21033648 29 18339634650437116200
21267235 1 18342179925334669955
21521721 280 18410017628347389155
221357 26 18131351903904099624
23522609 53 17987540176595239833
23559900 14 18271518805485051464
23569914 2 17318962357207383684
23569943 247 12894255940345614692
255183 451 17842285766267859726
3004659 81 18410292476564263962
335352 9 18413951693467195132
34797466 226 18202290186514724820
350125 39 18411981364652173481
3545911 37 18407478860024880240
4073 2 18186806910969914635
4258327 124 17096949042651344740
4325135 7 18410576180001325181
4340502 62 16950280706924169002
474 4 17822296829430890548
5104073 3 18341327786880535147
5265222 85 18059574749344021574
53794403 172 18118686762840589604
5486654 2 18413670223349863083
59682541 35 18041292019628801993
59755656 215 18060423486606000039
59755656 520 18040994055587566851
6328613 192 18413111683842785489

> <PUBCHEM_SHAPE_MULTIPOLES>
585.96
17.51
2.65
0.99
3.67
0.18
-0.32
-7.33
-1.86
-2.68
0.3
0.06
0.16
-0.68

> <PUBCHEM_SHAPE_SELFOVERLAP>
1260.034

> <PUBCHEM_SHAPE_VOLUME>
324.2

> <RelativeEnergy>
0

> <StereoisomerIndex>
1

> <TautomerIndex>
1

> <LibDock Warning>
no hit found

> <ErrorText>
LibDock failed

$$$$
65727
  SciTegic09112317153D

 72 77  0  0  0  0            999 V2000
   -7.5220    0.0330   -1.0780 O   0  0  0  1  0  0
    3.7270    0.9510    0.1150 N   0  0  0  1  0  0
    0.5180    0.0940    1.3350 C   0  0  2  1  0  0
    1.8500    0.8190    1.6290 C   0  0  2  1  0  0
    0.0730    0.8040    0.0490 C   0  0  2  1  0  0
    2.3370    1.3580    0.2740 C   0  0  2  1  0  0
   -1.1610    0.1260   -0.5620 C   0  0  1  1  0  0
    1.3620    0.7970   -0.7670 C   0  0  0  1  0  0
    3.0430   -0.0020    2.1800 C   0  0  1  1  0  0
   -2.3330    0.1810    0.4520 C   0  0  2  1  0  0
   -0.5930    0.3310    2.3630 C   0  0  0  1  0  0
    4.0210   -0.1650    1.0050 C   0  0  1  1  0  0
   -1.9050   -0.3060    1.8620 C   0  0  0  1  0  0
   -3.5500   -0.5930   -0.1390 C   0  0  2  1  0  0
    0.7270   -1.4090    1.1160 C   0  0  0  1  0  0
   -1.5430    0.8140   -1.8830 C   0  0  0  1  0  0
    3.8970   -1.5150    0.2840 C   0  0  0  1  0  0
    4.3840    0.9900   -1.1990 C   0  0  0  1  0  0
    3.7310    0.8000    3.2860 C   0  0  0  1  0  0
   -3.8730   -0.0670   -1.5350 C   0  0  0  1  0  0
    4.3570   -0.3690   -1.9250 C   0  0  2  1  0  0
   -4.8250   -0.4860    0.7480 C   0  0  0  1  0  0
    4.7640   -1.5110   -0.9800 C   0  0  0  1  0  0
   -2.9590    0.5300   -2.3320 C   0  0  0  1  0  0
   -3.1900   -2.0780   -0.2910 C   0  0  0  1  0  0
   -5.3080   -0.2150   -1.9870 C   0  0  0  1  0  0
   -5.7140    0.7140    0.3850 C   0  0  0  1  0  0
   -6.2330    0.6170   -1.0710 C   0  0  2  1  0  0
    5.2420   -0.3430   -3.1750 C   0  0  0  1  0  0
    1.6450    1.6600    2.2750 H   0  0  0  1  0  0
   -0.1860    1.8350    0.2620 H   0  0  0  1  0  0
    2.2840    2.4370    0.2670 H   0  0  0  1  0  0
   -0.9220   -0.9140   -0.7860 H   0  0  0  1  0  0
    1.3050    1.4190   -1.6490 H   0  0  0  1  0  0
    1.6030   -0.2080   -1.0750 H   0  0  0  1  0  0
    2.7390   -0.9550    2.5910 H   0  0  0  1  0  0
   -2.6190    1.2290    0.5610 H   0  0  0  1  0  0
   -0.3120   -0.0980    3.3250 H   0  0  0  1  0  0
   -0.7400    1.3970    2.5330 H   0  0  0  1  0  0
    5.0440   -0.0740    1.3440 H   0  0  0  1  0  0
   -1.7990   -1.3900    1.8630 H   0  0  0  1  0  0
   -2.6800   -0.0830    2.5920 H   0  0  0  1  0  0
    1.0960   -1.6270    0.1140 H   0  0  0  1  0  0
   -0.2090   -1.9510    1.2520 H   0  0  0  1  0  0
    1.4460   -1.8050    1.8310 H   0  0  0  1  0  0
   -0.8510    0.5240   -2.6730 H   0  0  0  1  0  0
   -1.4460    1.8950   -1.7740 H   0  0  0  1  0  0
    4.2020   -2.3230    0.9490 H   0  0  0  1  0  0
    2.8700   -1.7220   -0.0050 H   0  0  0  1  0  0
    3.9320    1.7690   -1.8150 H   0  0  0  1  0  0
    5.4220    1.2850   -1.0460 H   0  0  0  1  0  0
    4.6150    0.2870    3.6670 H   0  0  0  1  0  0
    3.0530    0.9630    4.1230 H   0  0  0  1  0  0
    4.0450    1.7750    2.9160 H   0  0  0  1  0  0
    3.3400   -0.5620   -2.2650 H   0  0  0  1  0  0
   -5.4350   -1.3840    0.6240 H   0  0  0  1  0  0
   -4.5860   -0.4610    1.8090 H   0  0  0  1  0  0
    4.6730   -2.4700   -1.4910 H   0  0  0  1  0  0
    5.8120   -1.4030   -0.7000 H   0  0  0  1  0  0
   -3.2450    0.8270   -3.3300 H   0  0  0  1  0  0
   -4.0300   -2.6640   -0.6660 H   0  0  0  1  0  0
   -2.8910   -2.5040    0.6680 H   0  0  0  1  0  0
   -2.3600   -2.2050   -0.9860 H   0  0  0  1  0  0
   -5.5590   -1.2760   -1.9430 H   0  0  0  1  0  0
   -5.4300    0.0850   -3.0290 H   0  0  0  1  0  0
   -5.1210    1.6240    0.4930 H   0  0  0  1  0  0
   -6.5350    0.8130    1.0990 H   0  0  0  1  0  0
   -6.3460    1.6250   -1.4720 H   0  0  0  1  0  0
    5.1910   -1.2960   -3.7020 H   0  0  0  1  0  0
    4.9340    0.4560   -3.8490 H   0  0  0  1  0  0
    6.2830   -0.1690   -2.9050 H   0  0  0  1  0  0
   -7.8500    0.0760   -1.9900 H   0  0  0  1  0  0
  1 28  1  0
  1 72  1  0
  2  6  1  0
  2 12  1  0
  2 18  1  0
  3  4  1  0
  3  5  1  0
  3 11  1  0
  3 15  1  0
  4  6  1  0
  4  9  1  0
  4 30  1  0
  5  7  1  0
  5  8  1  0
  5 31  1  0
  6  8  1  0
  6 32  1  0
  7 10  1  0
  7 16  1  0
  7 33  1  0
  8 34  1  0
  8 35  1  0
  9 12  1  0
  9 19  1  0
  9 36  1  0
 10 13  1  0
 10 14  1  0
 10 37  1  0
 11 13  1  0
 11 38  1  0
 11 39  1  0
 12 17  1  0
 12 40  1  0
 13 41  1  0
 13 42  1  0
 14 20  1  0
 14 22  1  0
 14 25  1  0
 15 43  1  0
 15 44  1  0
 15 45  1  0
 16 24  1  0
 16 46  1  0
 16 47  1  0
 17 23  1  0
 17 48  1  0
 17 49  1  0
 18 21  1  0
 18 50  1  0
 18 51  1  0
 19 52  1  0
 19 53  1  0
 19 54  1  0
 20 24  2  0
 20 26  1  0
 21 23  1  0
 21 29  1  0
 21 55  1  0
 22 27  1  0
 22 56  1  0
 22 57  1  0
 23 58  1  0
 23 59  1  0
 24 60  1  0
 25 61  1  0
 25 62  1  0
 25 63  1  0
 26 28  1  0
 26 64  1  0
 26 65  1  0
 27 28  1  0
 27 66  1  0
 27 67  1  0
 28 68  1  0
 29 69  1  0
 29 70  1  0
 29 71  1  0
M  END
> <Name>
65727

> <AbsoluteEnergy>
30.4062

> <ConfNumber>
1

> <Ionization pH>
7.54_D

> <IonizationIndex>
2

> <NumberOfIonizations>
2

> <NumberOfStereoisomers>
1

> <NumberOfTautomers>
1

> <OBJECTID>
9223372161412169741

> <PUBCHEM_ATOM_DEF_STEREO_COUNT>
11

> <PUBCHEM_ATOM_UDEF_STEREO_COUNT>
0

> <PUBCHEM_BOND_DEF_STEREO_COUNT>
0

> <PUBCHEM_BOND_UDEF_STEREO_COUNT>
0

> <PUBCHEM_CACTVS_TAUTO_COUNT>
1

> <PUBCHEM_COMPONENT_COUNT>
1

> <PUBCHEM_COMPOUND_CID>
65727

> <PUBCHEM_CONFORMER_DIVERSEORDER>
1

> <PUBCHEM_CONFORMER_ID>
000100BF00000001

> <PUBCHEM_CONFORMER_RMSD>
0.8

> <PUBCHEM_COORDINATE_TYPE>
2
5
10

> <PUBCHEM_EFFECTIVE_ROTOR_COUNT>
2.6

> <PUBCHEM_FEATURE_SELFOVERLAP>
46.106

> <PUBCHEM_HEAVY_ATOM_COUNT>
29

> <PUBCHEM_ISOTOPIC_ATOM_COUNT>
0

> <PUBCHEM_MMFF94_ENERGY>
85.93

> <PUBCHEM_MMFF94_PARTIAL_CHARGES>
13
1 -0.68
12 0.27
14 0.14
16 0.14
18 0.27
2 -0.81
20 -0.28
24 -0.29
26 0.14
28 0.28
6 0.27
60 0.15
72 0.4

> <PUBCHEM_PHARMACOPHORE_FEATURES>
9
1 1 acceptor
1 1 donor
1 2 cation
5 2 4 6 9 12 rings
5 3 4 5 6 8 rings
6 14 20 22 26 27 28 rings
6 2 12 17 18 21 23 rings
6 3 5 7 10 11 13 rings
6 7 10 14 16 20 24 rings

> <PUBCHEM_SHAPE_FINGERPRINT>
10 15 17967816050773926833
10165383 225 18040722472626803750
10411042 1 17904479603044024770
10595046 47 18411136926594182697
10906281 52 18130239193804698139
11135609 187 18410011069800952856
11524674 6 15482669096286716573
11578080 2 13624683625764403908
11796584 16 14404895912454887782
12107183 9 17618503186213601208
12166972 35 18040157309705142757
12236239 1 18187082836653296707
12403259 415 18040709226145757583
12596602 18 17821726130791965435
12730499 353 18334017194503234954
12788726 201 17703232814712117465
13533116 47 18262234417810426098
13782708 43 14404320924124886957
14294032 229 15768395794373151763
14341114 176 18408606942218188443
14394314 77 18411143515729142913
14528608 73 18410575093975830012
14790565 3 18339082575203763808
14840074 17 18060135457746592221
14856354 85 16415482683785854533
14933364 13 18409451384016979117
15183329 4 16702310061071689020
15196674 1 18411134706465323371
15276724 80 18337953385954008805
15685185 35 17972888244206360588
15840311 113 18260834803874397476
15961568 22 18334579040101863988
16993427 108 16809806930294838322
18335252 98 18333737940108915075
18608769 82 18336549438316974059
18681886 176 18340763827246087624
19611394 137 17896896549754256683
21033648 29 18339634650437116200
21267235 1 18342179925334669955
21521721 280 18410017628347389155
221357 26 18131351903904099624
23522609 53 17987540176595239833
23559900 14 18271518805485051464
23569914 2 17318962357207383684
23569943 247 12894255940345614692
255183 451 17842285766267859726
3004659 81 18410292476564263962
335352 9 18413951693467195132
34797466 226 18202290186514724820
350125 39 18411981364652173481
3545911 37 18407478860024880240
4073 2 18186806910969914635
4258327 124 17096949042651344740
4325135 7 18410576180001325181
4340502 62 16950280706924169002
474 4 17822296829430890548
5104073 3 18341327786880535147
5265222 85 18059574749344021574
53794403 172 18118686762840589604
5486654 2 18413670223349863083
59682541 35 18041292019628801993
59755656 215 18060423486606000039
59755656 520 18040994055587566851
6328613 192 18413111683842785489

> <PUBCHEM_SHAPE_MULTIPOLES>
585.96
17.51
2.65
0.99
3.67
0.18
-0.32
-7.33
-1.86
-2.68
0.3
0.06
0.16
-0.68

> <PUBCHEM_SHAPE_SELFOVERLAP>
1260.034

> <PUBCHEM_SHAPE_VOLUME>
324.2

> <RelativeEnergy>
0

> <StereoisomerIndex>
1

> <TautomerIndex>
1

> <LibDock Warning>
no hit found

> <ErrorText>
LibDock failed

$$$$
75324
  SciTegic09112317153D

 28 29  0  0  0  0            999 V2000
   -3.6780    0.1430   -0.2990 O   0  0  0  1  0  0
    0.8560    2.7580    0.7740 O   0  0  0  1  0  0
    3.1250   -1.0760    0.0200 O   0  0  0  1  0  0
   -1.6210   -0.9380   -0.3790 N   0  0  0  1  0  0
   -1.6970    1.2680    0.1640 N   0  0  0  1  0  0
    0.8870   -1.1560   -0.2050 N   0  0  0  1  0  0
    2.0650    0.8750    0.4120 N   0  0  0  1  0  0
   -0.3120   -0.4690   -0.1430 C   0  0  0  1  0  0
   -0.3590    0.8380    0.1800 C   0  0  0  1  0  0
   -2.4750    0.1560   -0.1850 C   0  0  0  1  0  0
    0.8770    1.5840    0.4810 C   0  0  0  1  0  0
    2.0740   -0.4810    0.0740 C   0  0  0  1  0  0
   -2.0330   -2.2890   -0.7560 C   0  0  0  1  0  0
   -2.1870    2.6110    0.4550 C   0  0  0  1  0  0
    0.9220   -2.5880   -0.5600 C   0  0  0  1  0  0
    3.3400    1.5620    0.7010 C   0  0  0  1  0  0
   -1.7150   -3.0650   -0.0590 H   0  0  0  1  0  0
   -1.6270   -2.5350   -1.7360 H   0  0  0  1  0  0
   -3.1210   -2.3320   -0.8260 H   0  0  0  1  0  0
   -1.4020    3.3520    0.6060 H   0  0  0  1  0  0
   -2.8010    2.5880    1.3560 H   0  0  0  1  0  0
   -2.8160    2.9550   -0.3670 H   0  0  0  1  0  0
    1.9200   -3.0220   -0.6130 H   0  0  0  1  0  0
    0.4470   -2.7290   -1.5310 H   0  0  0  1  0  0
    0.3520   -3.1540    0.1740 H   0  0  0  1  0  0
    3.2250    2.6270    0.5060 H   0  0  0  1  0  0
    3.6450    1.3360    1.7250 H   0  0  0  1  0  0
    4.1110    1.1820    0.0330 H   0  0  0  1  0  0
  1 10  2  0
  2 11  2  0
  3 12  2  0
  4  8  1  0
  4 10  1  0
  4 13  1  0
  5  9  1  0
  5 10  1  0
  5 14  1  0
  6  8  1  0
  6 12  1  0
  6 15  1  0
  7 11  1  0
  7 12  1  0
  7 16  1  0
  8  9  2  0
  9 11  1  0
 13 17  1  0
 13 18  1  0
 13 19  1  0
 14 20  1  0
 14 21  1  0
 14 22  1  0
 15 23  1  0
 15 24  1  0
 15 25  1  0
 16 26  1  0
 16 27  1  0
 16 28  1  0
M  END
> <Name>
75324

> <AbsoluteEnergy>
32.5403

> <ConfNumber>
1

> <IonizationIndex>
1

> <NumberOfIonizations>
1

> <NumberOfStereoisomers>
1

> <NumberOfTautomers>
1

> <OBJECTID>
9223372178592038925

> <PUBCHEM_ATOM_DEF_STEREO_COUNT>
0

> <PUBCHEM_ATOM_UDEF_STEREO_COUNT>
0

> <PUBCHEM_BOND_DEF_STEREO_COUNT>
0

> <PUBCHEM_BOND_UDEF_STEREO_COUNT>
0

> <PUBCHEM_CACTVS_TAUTO_COUNT>
1

> <PUBCHEM_COMPONENT_COUNT>
1

> <PUBCHEM_COMPOUND_CID>
75324

> <PUBCHEM_CONFORMER_DIVERSEORDER>
1

> <PUBCHEM_CONFORMER_ID>
0001263C00000001

> <PUBCHEM_CONFORMER_RMSD>
0.4

> <PUBCHEM_COORDINATE_TYPE>
2
5
10

> <PUBCHEM_EFFECTIVE_ROTOR_COUNT>
0

> <PUBCHEM_FEATURE_SELFOVERLAP>
25.464

> <PUBCHEM_HEAVY_ATOM_COUNT>
16

> <PUBCHEM_ISOTOPIC_ATOM_COUNT>
0

> <PUBCHEM_MMFF94_ENERGY>
49.325

> <PUBCHEM_MMFF94_PARTIAL_CHARGES>
16
1 -0.57
10 0.69
11 0.62
12 0.69
13 0.3
14 0.3
15 0.3
16 0.3
2 -0.57
3 -0.57
4 -0.47
5 -0.47
6 -0.47
7 -0.42
8 0.22
9 0.12

> <PUBCHEM_PHARMACOPHORE_FEATURES>
5
1 1 acceptor
1 2 acceptor
1 3 acceptor
5 4 5 8 9 10 rings
6 6 7 8 9 11 12 rings

> <PUBCHEM_SHAPE_FINGERPRINT>
10967382 1 18266740177578856167
11471102 20 18193833752502202725
12382932 28 18412261735515944344
13140716 1 18194401315028655306
13380535 76 18411978035931069766
13897977 150 18410852136187666509
15442244 35 18267583494634428666
16945 1 18410573998273742854
193761 8 18266740370878758240
20510252 161 18272090508544612905
21501502 16 18410292523070191886
2334 1 16897365910920497859
23402539 116 18271515498607971375
23463225 33 18408886230518397193
23552423 10 18335985345416448253
23559900 14 18343026597608831852
2748010 2 18410012135099995855
528886 8 18411131403429731417
53812653 166 18342452617314218048
7364860 26 18341894091282456976
8809292 202 18189338033902521610

> <PUBCHEM_SHAPE_MULTIPOLES>
291.74
4.67
3.14
0.58
0.23
0.34
0
-0.3
0.02
-0.15
-0.01
0
0.01
-0.01

> <PUBCHEM_SHAPE_SELFOVERLAP>
621.736

> <PUBCHEM_SHAPE_VOLUME>
162.1

> <RelativeEnergy>
0

> <StereoisomerIndex>
1

> <TautomerIndex>
1

> <LibDock Warning>
no hit found

> <ErrorText>
LibDock failed

$$$$
119245
  SciTegic09112317153D

133141  0  0  0  0            999 V2000
    7.9100   -0.5980    0.4460 O   0  0  0  1  0  0
    9.8470   -1.8990    0.1670 O   0  0  0  1  0  0
   -3.2510   -1.0370    1.2670 O   0  0  0  1  0  0
   -3.3530    1.2630    1.3150 O   0  0  0  1  0  0
   -4.8120   -0.9980   -1.1740 O   0  0  0  1  0  0
   -6.3920    1.4220   -1.4960 O   0  0  0  1  0  0
   -4.8950    3.8130   -0.7880 O   0  0  0  1  0  0
   -4.9850   -3.3410   -1.3180 O   0  0  0  1  0  0
   -1.9910    3.4310    2.2830 O   0  0  0  1  0  0
   -6.9910    4.5730   -0.2140 O   0  0  0  1  0  0
   -7.5880   -3.0110    0.0230 O   0  0  0  1  0  0
   -8.8600   -2.1540   -2.3520 O   0  0  0  1  0  0
   -3.8310    6.4460   -0.7120 O   0  0  0  1  0  0
   -7.1140   -3.4340   -4.2880 O   0  0  0  1  0  0
   -5.1980    7.8210    1.2340 O   0  0  0  1  0  0
   -8.2520    7.8980    0.7290 O   0  0  0  1  0  0
    5.2360   -2.0430   -0.2940 C   0  0  1  1  0  0
    4.7120   -1.7060    1.1070 C   0  0  2  1  0  0
    6.6640   -2.4980    0.0600 C   0  0  2  1  0  0
    3.3000   -1.1020    1.0520 C   0  0  1  1  0  0
    7.0760   -1.4980    1.1400 C   0  0  2  1  0  0
    2.3320   -2.0940    0.3710 C   0  0  2  1  0  0
    5.8140   -0.8080    1.6690 C   0  0  0  1  0  0
    4.3430   -3.1490   -0.8640 C   0  0  0  1  0  0
    7.7550   -2.3730   -1.0290 C   0  0  1  1  0  0
    2.8940   -2.6360   -0.9700 C   0  0  0  1  0  0
    0.9130   -1.4660    0.2430 C   0  0  2  1  0  0
    8.7210   -1.2950   -0.4810 C   0  0  1  1  0  0
    5.2430   -0.8010   -1.2000 C   0  0  0  1  0  0
    2.8100   -0.7950    2.4740 C   0  0  0  1  0  0
    0.4830   -0.7490    1.5230 C   0  0  0  1  0  0
   -0.1110   -2.5710   -0.1150 C   0  0  0  1  0  0
    8.3810   -3.7330   -1.3470 C   0  0  0  1  0  0
    9.2120   -0.3410   -1.5980 C   0  0  0  1  0  0
    1.3420   -0.4480    2.5230 C   0  0  0  1  0  0
    0.9100   -0.3950   -0.8550 C   0  0  0  1  0  0
   -0.9760   -0.3520    1.6500 C   0  0  0  1  0  0
   -1.5710   -2.0970   -0.0880 C   0  0  0  1  0  0
   -1.9190   -1.5080    1.2850 C   0  0  2  1  0  0
   10.6510    0.1670   -1.3940 C   0  0  0  1  0  0
   10.9970    0.2990    0.0940 C   0  0  2  1  0  0
   10.7060   -1.0070    0.8760 C   0  0  0  1  0  0
   10.2720    1.5000    0.7130 C   0  0  0  1  0  0
   -3.4220    0.1190    0.4710 C   0  0  2  1  0  0
   -4.7950    0.0810   -0.2530 C   0  0  1  1  0  0
   -5.0600    1.4050   -1.0060 C   0  0  2  1  0  0
   -3.4630    2.5120    0.6460 C   0  0  1  1  0  0
   -4.8360    2.6010   -0.0560 C   0  0  1  1  0  0
   -3.2660    3.6040    1.7040 C   0  0  0  1  0  0
   -5.4450   -2.1560   -0.6640 C   0  0  2  1  0  0
   -6.9830   -2.0140   -0.7890 C   0  0  1  1  0  0
   -5.5920    4.8400   -0.1080 C   0  0  2  1  0  0
   -7.4430   -2.1480   -2.2600 C   0  0  1  1  0  0
   -5.3020   -3.4560   -2.7040 C   0  0  2  1  0  0
   -5.2360    6.2400   -0.6730 C   0  0  1  1  0  0
   -6.8360   -3.4150   -2.9000 C   0  0  2  1  0  0
   -5.9650    7.3560    0.1300 C   0  0  1  1  0  0
   -7.8720    5.6980   -0.2100 C   0  0  2  1  0  0
   -7.3170    6.8320    0.6790 C   0  0  2  1  0  0
   -4.6760   -4.7680   -3.1880 C   0  0  0  1  0  0
   -9.2410    5.1720    0.2310 C   0  0  0  1  0  0
    4.6740   -2.6110    1.7030 H   0  0  0  1  0  0
    6.6400   -3.4920    0.4870 H   0  0  0  1  0  0
    3.3260   -0.1730    0.4820 H   0  0  0  1  0  0
    7.6450   -1.9830    1.9200 H   0  0  0  1  0  0
    2.2520   -2.9550    1.0370 H   0  0  0  1  0  0
    5.7930   -0.7730    2.7480 H   0  0  0  1  0  0
    5.7010    0.2050    1.3040 H   0  0  0  1  0  0
    4.7080   -3.4600   -1.8440 H   0  0  0  1  0  0
    4.3790   -4.0320   -0.2260 H   0  0  0  1  0  0
    7.3000   -2.0260   -1.9450 H   0  0  0  1  0  0
    2.8510   -1.8620   -1.7350 H   0  0  0  1  0  0
    2.2670   -3.4500   -1.3320 H   0  0  0  1  0  0
    4.2590   -0.3410   -1.2680 H   0  0  0  1  0  0
    5.5600   -1.0620   -2.2090 H   0  0  0  1  0  0
    5.9350   -0.0510   -0.8190 H   0  0  0  1  0  0
    2.9760   -1.6550    3.1230 H   0  0  0  1  0  0
    3.3860    0.0300    2.8970 H   0  0  0  1  0  0
   -0.0100   -3.4040    0.5860 H   0  0  0  1  0  0
    0.1040   -2.9840   -1.1010 H   0  0  0  1  0  0
    9.2060   -3.6430   -2.0530 H   0  0  0  1  0  0
    7.6420   -4.4040   -1.7820 H   0  0  0  1  0  0
    8.7660   -4.2010   -0.4400 H   0  0  0  1  0  0
    8.5340    0.5100   -1.6980 H   0  0  0  1  0  0
    9.1780   -0.8430   -2.5660 H   0  0  0  1  0  0
    0.9740    0.0650    3.3990 H   0  0  0  1  0  0
   -0.0270    0.1620   -0.8760 H   0  0  0  1  0  0
    1.0500   -0.8480   -1.8370 H   0  0  0  1  0  0
    1.7180    0.3210   -0.6980 H   0  0  0  1  0  0
   -1.1550    0.5010    0.9950 H   0  0  0  1  0  0
   -1.1960   -0.0110    2.6630 H   0  0  0  1  0  0
   -1.7270   -1.3550   -0.8720 H   0  0  0  1  0  0
   -2.2310   -2.9350   -0.3170 H   0  0  0  1  0  0
   -1.8610   -2.2870    2.0450 H   0  0  0  1  0  0
   10.8030    1.1100   -1.9220 H   0  0  0  1  0  0
   11.3440   -0.5470   -1.8440 H   0  0  0  1  0  0
   12.0670    0.5070    0.1720 H   0  0  0  1  0  0
   11.6290   -1.5540    1.0710 H   0  0  0  1  0  0
   10.2580   -0.7940    1.8490 H   0  0  0  1  0  0
   10.6490    2.4330    0.2990 H   0  0  0  1  0  0
    9.2000    1.4360    0.5320 H   0  0  0  1  0  0
   10.4270    1.5280    1.7920 H   0  0  0  1  0  0
   -2.5940    0.1650   -0.2390 H   0  0  0  1  0  0
   -5.5890   -0.0960    0.4750 H   0  0  0  1  0  0
   -4.3870    1.4820   -1.8630 H   0  0  0  1  0  0
   -2.6510    2.5700   -0.0830 H   0  0  0  1  0  0
   -5.6260    2.6360    0.6970 H   0  0  0  1  0  0
   -4.0110    3.5130    2.4920 H   0  0  0  1  0  0
   -3.2980    4.5930    1.2500 H   0  0  0  1  0  0
   -5.1470   -2.2270    0.3820 H   0  0  0  1  0  0
   -7.3070   -1.0540   -0.3800 H   0  0  0  1  0  0
   -5.3250    4.7870    0.9490 H   0  0  0  1  0  0
   -7.1040   -1.2660   -2.8080 H   0  0  0  1  0  0
   -4.8270   -2.6250   -3.2270 H   0  0  0  1  0  0
   -5.5690    6.2900   -1.7110 H   0  0  0  1  0  0
   -7.2870   -4.3080   -2.4660 H   0  0  0  1  0  0
   -6.1080    8.2100   -0.5340 H   0  0  0  1  0  0
   -7.9390    6.0500   -1.2400 H   0  0  0  1  0  0
   -7.2130    6.4530    1.7010 H   0  0  0  1  0  0
   -3.6080   -4.8130   -2.9740 H   0  0  0  1  0  0
   -4.8040   -4.8800   -4.2670 H   0  0  0  1  0  0
   -5.1510   -5.6220   -2.7080 H   0  0  0  1  0  0
   -9.5640    4.3200   -0.3700 H   0  0  0  1  0  0
   -9.9990    5.9480    0.1400 H   0  0  0  1  0  0
   -9.2140    4.8520    1.2730 H   0  0  0  1  0  0
   -6.4580    2.1610   -2.1190 H   0  0  0  1  0  0
   -1.8830    4.1280    2.9500 H   0  0  0  1  0  0
   -7.3930   -2.7860    0.9460 H   0  0  0  1  0  0
   -9.0880   -1.9670   -3.2740 H   0  0  0  1  0  0
   -3.4740    5.8540   -1.3930 H   0  0  0  1  0  0
   -7.0270   -4.3520   -4.5860 H   0  0  0  1  0  0
   -5.6310    8.6250    1.5620 H   0  0  0  1  0  0
   -8.9430    7.6430    1.3590 H   0  0  0  1  0  0
  1 21  1  0
  1 28  1  0
  2 28  1  0
  2 42  1  0
  3 39  1  0
  3 44  1  0
  4 44  1  0
  4 47  1  0
  5 45  1  0
  5 50  1  0
  6 46  1  0
  6126  1  0
  7 48  1  0
  7 52  1  0
  8 50  1  0
  8 54  1  0
  9 49  1  0
  9127  1  0
 10 52  1  0
 10 58  1  0
 11 51  1  0
 11128  1  0
 12 53  1  0
 12129  1  0
 13 55  1  0
 13130  1  0
 14 56  1  0
 14131  1  0
 15 57  1  0
 15132  1  0
 16 59  1  0
 16133  1  0
 17 18  1  0
 17 19  1  0
 17 24  1  0
 17 29  1  0
 18 20  1  0
 18 23  1  0
 18 62  1  0
 19 21  1  0
 19 25  1  0
 19 63  1  0
 20 22  1  0
 20 30  1  0
 20 64  1  0
 21 23  1  0
 21 65  1  0
 22 26  1  0
 22 27  1  0
 22 66  1  0
 23 67  1  0
 23 68  1  0
 24 26  1  0
 24 69  1  0
 24 70  1  0
 25 28  1  0
 25 33  1  0
 25 71  1  0
 26 72  1  0
 26 73  1  0
 27 31  1  0
 27 32  1  0
 27 36  1  0
 28 34  1  0
 29 74  1  0
 29 75  1  0
 29 76  1  0
 30 35  1  0
 30 77  1  0
 30 78  1  0
 31 35  2  0
 31 37  1  0
 32 38  1  0
 32 79  1  0
 32 80  1  0
 33 81  1  0
 33 82  1  0
 33 83  1  0
 34 40  1  0
 34 84  1  0
 34 85  1  0
 35 86  1  0
 36 87  1  0
 36 88  1  0
 36 89  1  0
 37 39  1  0
 37 90  1  0
 37 91  1  0
 38 39  1  0
 38 92  1  0
 38 93  1  0
 39 94  1  0
 40 41  1  0
 40 95  1  0
 40 96  1  0
 41 42  1  0
 41 43  1  0
 41 97  1  0
 42 98  1  0
 42 99  1  0
 43100  1  0
 43101  1  0
 43102  1  0
 44 45  1  0
 44103  1  0
 45 46  1  0
 45104  1  0
 46 48  1  0
 46105  1  0
 47 48  1  0
 47 49  1  0
 47106  1  0
 48107  1  0
 49108  1  0
 49109  1  0
 50 51  1  0
 50110  1  0
 51 53  1  0
 51111  1  0
 52 55  1  0
 52112  1  0
 53 56  1  0
 53113  1  0
 54 56  1  0
 54 60  1  0
 54114  1  0
 55 57  1  0
 55115  1  0
 56116  1  0
 57 59  1  0
 57117  1  0
 58 59  1  0
 58 61  1  0
 58118  1  0
 59119  1  0
 60120  1  0
 60121  1  0
 60122  1  0
 61123  1  0
 61124  1  0
 61125  1  0
M  END
> <Name>
119245

> <AbsoluteEnergy>
72.0221

> <ConfNumber>
1

> <IonizationIndex>
1

> <NumberOfIonizations>
1

> <NumberOfStereoisomers>
1

> <NumberOfTautomers>
1

> <OBJECTID>
9223372277376286733

> <PUBCHEM_ATOM_DEF_STEREO_COUNT>
26

> <PUBCHEM_ATOM_UDEF_STEREO_COUNT>
0

> <PUBCHEM_BONDANNOTATIONS>
28  1  6
51  11  5
53  12  5
55  13  6
56  14  6
57  15  6
59  16  5
17  29  5
18  62  6
19  63  6
20  64  5
21  65  6
22  66  6
25  33  6
27  36  5
39  3  5
44  3  5
41  43  6
47  49  5
45  5  6
50  5  6
54  60  5
58  61  6
46  6  5
48  7  6
52  7  5

> <PUBCHEM_BOND_DEF_STEREO_COUNT>
0

> <PUBCHEM_BOND_UDEF_STEREO_COUNT>
0

> <PUBCHEM_CACTVS_COMPLEXITY>
1600

> <PUBCHEM_CACTVS_HBOND_ACCEPTOR>
16

> <PUBCHEM_CACTVS_HBOND_DONOR>
8

> <PUBCHEM_CACTVS_ROTATABLE_BOND>
7

> <PUBCHEM_CACTVS_SUBSKEYS>
AAADcfB8PgAAAAAAAAAAAAAAAAAAAaIAAAA0aJEiAAASAGCAAAAAGgAACAAADxSwgAMCCAAABgCAAiBCAAAAAAAgAAAACAAAAAgREAIAAQAiQAAFwAAPAAPA4PwPgAAAAAAAAADAAAQAACAAAYAADAAAAA==

> <PUBCHEM_CACTVS_TAUTO_COUNT>
-1

> <PUBCHEM_CACTVS_TPSA>
236

> <PUBCHEM_COMPONENT_COUNT>
1

> <PUBCHEM_COMPOUND_CANONICALIZED>
1

> <PUBCHEM_COMPOUND_CID>
119245

> <PUBCHEM_COORDINATE_TYPE>
1
5
255

> <PUBCHEM_EXACT_MASS>
868.4820362

> <PUBCHEM_HEAVY_ATOM_COUNT>
61

> <PUBCHEM_ISOTOPIC_ATOM_COUNT>
0

> <PUBCHEM_IUPAC_CAS_NAME>
(2S,3R,4R,5R,6S)-2-[[(2R,3S,4S,5R,6R)-4-hydroxy-2-(hydroxymethyl)-6-[[(1S,2S,4S,5'R,6R,7S,8R,9S,12S,13R,16S)-5',7,9,13-tetramethyl-16-spiro[5-oxapentacyclo[10.8.0.02,9.04,8.013,18]eicos-18-ene-6,2'-ox
ane]yl]oxy]-5-[[(2S,3R,4R,5R,6S)-3,4,5-trihydroxy-6-methyl-2-oxanyl]oxy]-3-oxanyl]oxy]-6-methyloxane-3,4,5-triol

> <PUBCHEM_IUPAC_INCHI>
InChI=1S/C45H72O16/c1-19-9-14-45(54-18-19)20(2)30-28(61-45)16-27-25-8-7-23-15-24(10-12-43(23,5)26(25)11-13-44(27,30)6)57-42-39(60-41-36(52)34(50)32(48)22(4)56-41)37(53)38(29(17-46)58-42)59-40-35(51)33
(49)31(47)21(3)55-40/h7,19-22,24-42,46-53H,8-18H2,1-6H3/t19-,20+,21+,22+,24+,25-,26+,27+,28+,29-,30+,31+,32+,33-,34-,35-,36-,37+,38-,39-,40+,41+,42-,43+,44+,45-/m1/s1

> <PUBCHEM_IUPAC_INCHIKEY>
VNONINPVFQTJOC-ZGXDEBHDSA-N

> <PUBCHEM_IUPAC_NAME>
(2S,3R,4R,5R,6S)-2-[(2R,3S,4S,5R,6R)-4-hydroxy-2-(hydroxymethyl)-6-[(1S,2S,4S,5'R,6R,7S,8R,9S,12S,13R,16S)-5',7,9,13-tetramethylspiro[5-oxapentacyclo[10.8.0.02,9.04,8.013,18]icos-18-ene-6,2'-oxane]-16
-yl]oxy-5-[(2S,3R,4R,5R,6S)-3,4,5-trihydroxy-6-methyloxan-2-yl]oxyoxan-3-yl]oxy-6-methyloxane-3,4,5-triol

> <PUBCHEM_IUPAC_NAME_MARKUP>
(2<I>S</I>,3<I>R</I>,4<I>R</I>,5<I>R</I>,6<I>S</I>)-2-[(2<I>R</I>,3<I>S</I>,4<I>S</I>,5<I>R</I>,6<I>R</I>)-4-hydroxy-2-(hydroxymethyl)-6-[(1<I>S</I>,2<I>S</I>,4<I>S</I>,5&apos;<I>R</I>,6<I>R</I>,7<I>S
</I>,8<I>R</I>,9<I>S</I>,12<I>S</I>,13<I>R</I>,16<I>S</I>)-5&apos;,7,9,13-tetramethylspiro[5-oxapentacyclo[10.8.0.0<SUP>2,9</SUP>.0<SUP>4,8</SUP>.0<SUP>13,18</SUP>]icos-18-ene-6,2&apos;-oxane]-16-yl]o
xy-5-[(2<I>S</I>,3<I>R</I>,4<I>R</I>,5<I>R</I>,6<I>S</I>)-3,4,5-trihydroxy-6-methyloxan-2-yl]oxyoxan-3-yl]oxy-6-methyloxane-3,4,5-triol

> <PUBCHEM_IUPAC_OPENEYE_NAME>
(2S,3R,4R,5R,6S)-2-[(2R,3S,4S,5R,6R)-4-hydroxy-2-(hydroxymethyl)-6-[(1S,2S,4S,5'R,6R,7S,8R,9S,12S,13R,16S)-5',7,9,13-tetramethylspiro[5-oxapentacyclo[10.8.0.02,9.04,8.013,18]icos-18-ene-6,2'-tetrahydr
opyran]-16-yl]oxy-5-[(2S,3R,4R,5R,6S)-3,4,5-trihydroxy-6-methyl-tetrahydropyran-2-yl]oxy-tetrahydropyran-3-yl]oxy-6-methyl-tetrahydropyran-3,4,5-triol

> <PUBCHEM_IUPAC_SYSTEMATIC_NAME>
(2S,3R,4R,5R,6S)-2-[(2R,3S,4S,5R,6R)-2-(hydroxymethyl)-5-[(2S,3R,4R,5R,6S)-6-methyl-3,4,5-tris(oxidanyl)oxan-2-yl]oxy-4-oxidanyl-6-[(1S,2S,4S,5'R,6R,7S,8R,9S,12S,13R,16S)-5',7,9,13-tetramethylspiro[5-
oxapentacyclo[10.8.0.02,9.04,8.013,18]icos-18-ene-6,2'-oxane]-16-yl]oxy-oxan-3-yl]oxy-6-methyl-oxane-3,4,5-triol

> <PUBCHEM_IUPAC_TRADITIONAL_NAME>
(2S,3R,4R,5R,6S)-2-[(2R,3S,4S,5R,6R)-4-hydroxy-2-methylol-6-[(1S,2S,4S,5'R,6R,7S,8R,9S,12S,13R,16S)-5',7,9,13-tetramethylspiro[5-oxapentacyclo[10.8.0.02,9.04,8.013,18]eicos-18-ene-6,2'-tetrahydropyran
]-16-yl]oxy-5-[(2S,3R,4R,5R,6S)-3,4,5-trihydroxy-6-methyl-tetrahydropyran-2-yl]oxy-tetrahydropyran-3-yl]oxy-6-methyl-tetrahydropyran-3,4,5-triol

> <PUBCHEM_MOLECULAR_FORMULA>
C45H72O16

> <PUBCHEM_MOLECULAR_WEIGHT>
869

> <PUBCHEM_MONOISOTOPIC_WEIGHT>
868.4820362

> <PUBCHEM_OPENEYE_CAN_SMILES>
CC1CCC2(C(C3C(O2)CC4C3(CCC5C4CC=C6C5(CCC(C6)OC7C(C(C(C(O7)CO)OC8C(C(C(C(O8)C)O)O)O)O)OC9C(C(C(C(O9)C)O)O)O)C)C)C)OC1

> <PUBCHEM_OPENEYE_ISO_SMILES>
C[C@@H]1CC[C@@]2([C@H]([C@H]3[C@@H](O2)C[C@@H]4[C@@]3(CC[C@H]5[C@H]4CC=C6[C@@]5(CC[C@@H](C6)O[C@H]7[C@@H]([C@H]([C@@H]([C@H](O7)CO)O[C@H]8[C@@H]([C@@H]([C@H]([C@@H](O8)C)O)O)O)O)O[C@H]9[C@@H]([C@@H]([
C@H]([C@@H](O9)C)O)O)O)C)C)C)OC1

> <PUBCHEM_TOTAL_CHARGE>
0

> <PUBCHEM_XLOGP3_AA>
1.3

> <RelativeEnergy>
0

> <StereoisomerIndex>
1

> <TautomerIndex>
1

> <LibDock Warning>
no hit found

> <ErrorText>
LibDock failed

$$$$
169853
  SciTegic09112317153D

 99107  0  0  0  0            999 V2000
    0.8280   -1.3100    0.7790 O   0  0  0  1  0  0
   -1.1240   -6.1870   -1.1350 O   0  0  0  1  0  0
    2.4900    1.8160    1.7220 O   0  0  0  1  0  0
    1.5240    4.0460   -0.7600 O   0  0  0  1  0  0
    1.9480   -4.2390   -0.6830 O   0  0  0  1  0  0
    0.4130    1.5010   -3.1500 O   0  0  0  1  0  0
   -1.1430   -2.9810   -3.2170 O   0  0  0  1  0  0
    1.1310    5.8600   -3.0040 O   0  0  0  1  0  0
    3.4470   -0.2210   -1.8130 O   0  5  0  1  0  0
   -2.6840   -1.7100   -0.0450 O   0  5  0  1  0  0
    5.3490    3.7460   -3.6730 O   0  0  0  1  0  0
   -5.7620   -5.1810   -1.1440 O   0  0  0  1  0  0
   -3.1390   -0.5280    3.8840 O   0  0  0  1  0  0
   -3.4990    2.1740    3.6510 O   0  0  0  1  0  0
   -0.4940   -8.8320    3.1730 O   0  0  0  1  0  0
    0.5460   -6.9320    4.8450 O   0  0  0  1  0  0
   -3.2200    5.2870   -0.2620 O   0  0  0  1  0  0
   -3.2320    7.5710    1.2450 O   0  0  0  1  0  0
    1.4460    1.2550   -0.4250 C   0  0  2  1  0  0
    2.1060    0.7370    0.8850 C   0  0  2  1  0  0
   -0.3690   -3.4510   -0.5350 C   0  0  2  1  0  0
    0.7270    0.1600   -1.1640 C   0  0  0  1  0  0
    1.1800   -0.2310    1.6490 C   0  0  1  1  0  0
    0.4820   -1.0910   -0.5110 C   0  0  0  1  0  0
   -0.1450   -2.1500   -1.2120 C   0  0  0  1  0  0
    0.6160   -4.5140   -1.0950 C   0  0  2  1  0  0
    2.4660    1.9160   -1.2730 C   0  0  0  1  0  0
    0.2140   -5.9450   -0.6860 C   0  0  1  1  0  0
   -1.8010   -3.8970   -0.6490 C   0  0  0  1  0  0
    2.4640    3.3260   -1.4140 C   0  0  0  1  0  0
    0.2660    0.3320   -2.5060 C   0  0  0  1  0  0
   -0.5560   -1.9760   -2.5520 C   0  0  0  1  0  0
    3.4410    3.9570   -2.2390 C   0  0  0  1  0  0
   -0.0640    0.4090    2.1810 C   0  0  0  1  0  0
    3.4340    5.4350   -2.4070 C   0  0  0  1  0  0
    2.0970    6.0820   -1.9860 C   0  0  2  1  0  0
   -2.0940   -5.2570   -0.9800 C   0  0  0  1  0  0
    1.6290    5.4700   -0.6470 C   0  0  1  1  0  0
    3.4400    1.1360   -1.9430 C   0  0  0  1  0  0
   -0.3560   -0.7350   -3.1930 C   0  0  0  1  0  0
    0.3010   -6.2080    0.7820 C   0  0  0  1  0  0
   -2.8930   -3.0010   -0.4270 C   0  0  0  1  0  0
    4.4180    3.1670   -2.9010 C   0  0  0  1  0  0
    4.4130    1.7620   -2.7530 C   0  0  0  1  0  0
   -1.0490   -0.3790    2.8010 C   0  0  0  1  0  0
   -3.4300   -5.6790   -1.1550 C   0  0  0  1  0  0
   -0.2500    1.7960    2.0620 C   0  0  0  1  0  0
    0.3420    6.0270   -0.1450 C   0  0  0  1  0  0
   -4.2280   -3.4390   -0.6010 C   0  0  0  1  0  0
   -4.4970   -4.7720   -0.9720 C   0  0  0  1  0  0
   -0.1500   -7.4320    1.3080 C   0  0  0  1  0  0
    0.8370   -5.2330    1.6430 C   0  0  0  1  0  0
   -2.2200    0.2160    3.3040 C   0  0  0  1  0  0
   -1.4190    2.3940    2.5640 C   0  0  0  1  0  0
   -0.8690    5.3790   -0.4460 C   0  0  0  1  0  0
    0.3330    7.1990    0.6300 C   0  0  0  1  0  0
   -2.4050    1.6080    3.1840 C   0  0  0  1  0  0
   -0.0690   -7.6830    2.6880 C   0  0  0  1  0  0
    0.9180   -5.4820    3.0220 C   0  0  0  1  0  0
    0.4670   -6.7060    3.5490 C   0  0  0  1  0  0
   -2.0880    5.9010    0.0240 C   0  0  0  1  0  0
   -0.8830    7.7230    1.1020 C   0  0  0  1  0  0
   -2.0940    7.0760    0.8000 C   0  0  0  1  0  0
    0.6930    2.0050   -0.1750 H   0  0  0  1  0  0
    3.0200    0.1900    0.6480 H   0  0  0  1  0  0
   -0.1760   -3.3060    0.5290 H   0  0  0  1  0  0
    1.7100   -0.6650    2.4960 H   0  0  0  1  0  0
    0.6190   -4.4800   -2.1880 H   0  0  0  1  0  0
    0.8530   -6.6710   -1.1870 H   0  0  0  1  0  0
    4.2340    5.8410   -1.7860 H   0  0  0  1  0  0
    3.6790    5.7070   -3.4360 H   0  0  0  1  0  0
    2.2240    7.1610   -1.8970 H   0  0  0  1  0  0
    2.3880    5.6790    0.1120 H   0  0  0  1  0  0
   -0.6850   -0.6080   -4.2160 H   0  0  0  1  0  0
    5.1580    1.1650   -3.2600 H   0  0  0  1  0  0
   -0.9090   -1.4470    2.8950 H   0  0  0  1  0  0
   -3.6410   -6.7000   -1.4290 H   0  0  0  1  0  0
    0.5050    2.4080    1.5870 H   0  0  0  1  0  0
   -5.0470   -2.7500   -0.4520 H   0  0  0  1  0  0
   -0.5610   -8.1840    0.6490 H   0  0  0  1  0  0
    1.1850   -4.2890    1.2470 H   0  0  0  1  0  0
   -1.5590    3.4600    2.4690 H   0  0  0  1  0  0
   -0.8670    4.4780   -1.0410 H   0  0  0  1  0  0
    1.2620    7.7030    0.8650 H   0  0  0  1  0  0
    1.3290   -4.7310    3.6800 H   0  0  0  1  0  0
   -0.8850    8.6240    1.6960 H   0  0  0  1  0  0
    2.9850    1.4380    2.4660 H   0  0  0  1  0  0
    2.2220   -3.4210   -1.1270 H   0  0  0  1  0  0
    0.0890    1.5840   -4.0560 H   0  0  0  1  0  0
   -1.4460   -2.8350   -4.1230 H   0  0  0  1  0  0
    0.4190    6.5030   -2.8640 H   0  0  0  1  0  0
    5.4040    4.7100   -3.7050 H   0  0  0  1  0  0
   -6.4820   -4.5500   -1.0180 H   0  0  0  1  0  0
   -3.9410   -0.1100    4.2250 H   0  0  0  1  0  0
   -3.6120    3.1300    3.5600 H   0  0  0  1  0  0
   -0.8590   -9.4930    2.5690 H   0  0  0  1  0  0
    0.2330   -7.7770    5.1970 H   0  0  0  1  0  0
   -4.0520    5.7650   -0.1590 H   0  0  0  1  0  0
   -4.0250    7.0190    1.2350 H   0  0  0  1  0  0
  1 23  1  0
  1 24  1  0
  2 28  1  0
  2 37  1  0
  3 20  1  0
  3 87  1  0
  4 30  1  0
  4 38  1  0
  5 26  1  0
  5 88  1  0
  6 31  1  0
  6 89  1  0
  7 32  1  0
  7 90  1  0
  8 36  1  0
  8 91  1  0
  9 39  1  0
 10 42  1  0
 11 43  1  0
 11 92  1  0
 12 50  1  0
 12 93  1  0
 13 53  1  0
 13 94  1  0
 14 57  1  0
 14 95  1  0
 15 58  1  0
 15 96  1  0
 16 60  1  0
 16 97  1  0
 17 61  1  0
 17 98  1  0
 18 63  1  0
 18 99  1  0
 19 20  1  0
 19 22  1  0
 19 27  1  0
 19 64  1  0
 20 23  1  0
 20 65  1  0
 21 25  1  0
 21 26  1  0
 21 29  1  0
 21 66  1  0
 22 24  2  0
 22 31  1  0
 23 34  1  0
 23 67  1  0
 24 25  1  0
 25 32  2  0
 26 28  1  0
 26 68  1  0
 27 30  2  0
 27 39  1  0
 28 41  1  0
 28 69  1  0
 29 37  2  0
 29 42  1  0
 30 33  1  0
 31 40  2  0
 32 40  1  0
 33 35  1  0
 33 43  2  0
 34 45  2  0
 34 47  1  0
 35 36  1  0
 35 70  1  0
 35 71  1  0
 36 38  1  0
 36 72  1  0
 37 46  1  0
 38 48  1  0
 38 73  1  0
 39 44  2  0
 40 74  1  0
 41 51  2  0
 41 52  1  0
 42 49  2  0
 43 44  1  0
 44 75  1  0
 45 53  1  0
 45 76  1  0
 46 50  2  0
 46 77  1  0
 47 54  2  0
 47 78  1  0
 48 55  2  0
 48 56  1  0
 49 50  1  0
 49 79  1  0
 51 58  1  0
 51 80  1  0
 52 59  2  0
 52 81  1  0
 53 57  2  0
 54 57  1  0
 54 82  1  0
 55 61  1  0
 55 83  1  0
 56 62  2  0
 56 84  1  0
 58 60  2  0
 59 60  1  0
 59 85  1  0
 61 63  2  0
 62 63  1  0
 62 86  1  0
M  CHG  2   9  -1  10  -1
M  END
> <Name>
169853

> <AbsoluteEnergy>
119.106

> <ConfNumber>
1

> <Ionization pH>
6.79_DDPPPPPPPPPP

> <IonizationIndex>
2

> <NumberOfIonizations>
2

> <NumberOfStereoisomers>
1

> <NumberOfTautomers>
1

> <OBJECTID>
9223372307441057805

> <PUBCHEM_ATOM_DEF_STEREO_COUNT>
8

> <PUBCHEM_ATOM_UDEF_STEREO_COUNT>
0

> <PUBCHEM_BONDANNOTATIONS>
19  64  5
21  66  6
22  24  8
22  31  8
23  34  5
24  25  8
25  32  8
27  30  8
27  39  8
28  41  6
29  37  8
29  42  8
20  3  5
30  33  8
31  40  8
32  40  8
33  43  8
34  45  8
34  47  8
37  46  8
38  48  6
39  44  8
41  51  8
41  52  8
42  49  8
43  44  8
45  53  8
46  50  8
47  54  8
48  55  8
48  56  8
49  50  8
26  5  6
51  58  8
52  59  8
53  57  8
54  57  8
55  61  8
56  62  8
58  60  8
59  60  8
61  63  8
62  63  8
36  8  6

> <PUBCHEM_BOND_DEF_STEREO_COUNT>
0

> <PUBCHEM_BOND_UDEF_STEREO_COUNT>
0

> <PUBCHEM_CACTVS_COMPLEXITY>
1550

> <PUBCHEM_CACTVS_HBOND_ACCEPTOR>
18

> <PUBCHEM_CACTVS_HBOND_DONOR>
15

> <PUBCHEM_CACTVS_ROTATABLE_BOND>
5

> <PUBCHEM_CACTVS_SUBSKEYS>
AAADcfB8PgAAAAAAAAAAAAAAAAAAAAAAAAA0aNGDAAAAAACRVAAAGgAACAAADRSgmAIwBoAABgCAAiBCAAACCAAgIAAIiAAGiIgNNyKGMRqCeCGlwBULuAfA4PwOoAADCAAIQABAAAYQABCAAAAAAAAAAA==

> <PUBCHEM_CACTVS_TAUTO_COUNT>
938

> <PUBCHEM_CACTVS_TPSA>
331

> <PUBCHEM_COMPONENT_COUNT>
1

> <PUBCHEM_COMPOUND_CANONICALIZED>
1

> <PUBCHEM_COMPOUND_CID>
169853

> <PUBCHEM_COORDINATE_TYPE>
1
5
255

> <PUBCHEM_EXACT_MASS>
866.20581436

> <PUBCHEM_HEAVY_ATOM_COUNT>
63

> <PUBCHEM_ISOTOPIC_ATOM_COUNT>
0

> <PUBCHEM_IUPAC_CAS_NAME>
(2R,3R,4S)-2-(3,4-dihydroxyphenyl)-4-[(2R,3R)-2-(3,4-dihydroxyphenyl)-3,5,7-trihydroxy-3,4-dihydro-2H-1-benzopyran-8-yl]-8-[(2R,3R,4R)-2-(3,4-dihydroxyphenyl)-3,5,7-trihydroxy-3,4-dihydro-2H-1-benzopy
ran-4-yl]-3,4-dihydro-2H-1-benzopyran-3,5,7-triol

> <PUBCHEM_IUPAC_INCHI>
InChI=1S/C45H38O18/c46-18-10-27(54)33-32(11-18)61-42(16-2-5-21(48)25(52)8-16)39(59)37(33)35-29(56)14-30(57)36-38(40(60)43(63-45(35)36)17-3-6-22(49)26(53)9-17)34-28(55)13-23(50)19-12-31(58)41(62-44(19)
34)15-1-4-20(47)24(51)7-15/h1-11,13-14,31,37-43,46-60H,12H2/t31-,37-,38+,39-,40-,41-,42-,43-/m1/s1

> <PUBCHEM_IUPAC_INCHIKEY>
MOJZMWJRUKIQGL-XILRTYJMSA-N

> <PUBCHEM_IUPAC_NAME>
(2R,3R,4S)-2-(3,4-dihydroxyphenyl)-4-[(2R,3R)-2-(3,4-dihydroxyphenyl)-3,5,7-trihydroxy-3,4-dihydro-2H-chromen-8-yl]-8-[(2R,3R,4R)-2-(3,4-dihydroxyphenyl)-3,5,7-trihydroxy-3,4-dihydro-2H-chromen-4-yl]-
3,4-dihydro-2H-chromene-3,5,7-triol

> <PUBCHEM_IUPAC_NAME_MARKUP>
(2<I>R</I>,3<I>R</I>,4<I>S</I>)-2-(3,4-dihydroxyphenyl)-4-[(2<I>R</I>,3<I>R</I>)-2-(3,4-dihydroxyphenyl)-3,5,7-trihydroxy-3,4-dihydro-2<I>H</I>-chromen-8-yl]-8-[(2<I>R</I>,3<I>R</I>,4<I>R</I>)-2-(3,4-
dihydroxyphenyl)-3,5,7-trihydroxy-3,4-dihydro-2<I>H</I>-chromen-4-yl]-3,4-dihydro-2<I>H</I>-chromene-3,5,7-triol

> <PUBCHEM_IUPAC_OPENEYE_NAME>
(2R,3R,4S)-2-(3,4-dihydroxyphenyl)-4-[(2R,3R)-2-(3,4-dihydroxyphenyl)-3,5,7-trihydroxy-chroman-8-yl]-8-[(2R,3R,4R)-2-(3,4-dihydroxyphenyl)-3,5,7-trihydroxy-chroman-4-yl]chromane-3,5,7-triol

> <PUBCHEM_IUPAC_SYSTEMATIC_NAME>
(2R,3R,4S)-2-[3,4-bis(oxidanyl)phenyl]-4-[(2R,3R)-2-[3,4-bis(oxidanyl)phenyl]-3,5,7-tris(oxidanyl)-3,4-dihydro-2H-chromen-8-yl]-8-[(2R,3R,4R)-2-[3,4-bis(oxidanyl)phenyl]-3,5,7-tris(oxidanyl)-3,4-dihyd
ro-2H-chromen-4-yl]-3,4-dihydro-2H-chromene-3,5,7-triol

> <PUBCHEM_IUPAC_TRADITIONAL_NAME>
(2R,3R,4S)-2-(3,4-dihydroxyphenyl)-4-[(2R,3R)-2-(3,4-dihydroxyphenyl)-3,5,7-trihydroxy-chroman-8-yl]-8-[(2R,3R,4R)-2-(3,4-dihydroxyphenyl)-3,5,7-trihydroxy-chroman-4-yl]chroman-3,5,7-triol

> <PUBCHEM_MOLECULAR_FORMULA>
C45H38O18

> <PUBCHEM_MOLECULAR_WEIGHT>
866.8

> <PUBCHEM_MONOISOTOPIC_WEIGHT>
866.20581436

> <PUBCHEM_OPENEYE_CAN_SMILES>
C1C(C(OC2=C1C(=CC(=C2C3C(C(OC4=C(C(=CC(=C34)O)O)C5C(C(OC6=CC(=CC(=C56)O)O)C7=CC(=C(C=C7)O)O)O)C8=CC(=C(C=C8)O)O)O)O)O)C9=CC(=C(C=C9)O)O)O

> <PUBCHEM_OPENEYE_ISO_SMILES>
C1[C@H]([C@H](OC2=C1C(=CC(=C2[C@@H]3[C@H]([C@H](OC4=C(C(=CC(=C34)O)O)[C@@H]5[C@H]([C@H](OC6=CC(=CC(=C56)O)O)C7=CC(=C(C=C7)O)O)O)C8=CC(=C(C=C8)O)O)O)O)O)C9=CC(=C(C=C9)O)O)O

> <PUBCHEM_TOTAL_CHARGE>
0

> <PUBCHEM_XLOGP3_AA>
3.3

> <RelativeEnergy>
0

> <StereoisomerIndex>
1

> <TautomerIndex>
1

> <LibDock Warning>
no hit found

> <ErrorText>
LibDock failed

$$$$
179651
  SciTegic09112317153D

 64 70  0  0  0  0            999 V2000
   -2.1620   -0.2000    2.0200 O   0  0  0  1  0  0
    4.1090    0.4220   -0.8420 O   0  0  0  1  0  0
   -4.1710   -1.8290    1.1250 O   0  0  0  1  0  0
    2.6720   -0.0850    2.5940 O   0  0  0  1  0  0
   -1.4120    2.0910   -1.1920 O   0  0  0  1  0  0
   -5.3370   -0.1850    2.0740 O   0  0  0  1  0  0
    3.5780   -2.0610    3.0450 O   0  0  0  1  0  0
   -5.2040   -0.1100   -2.7300 O   0  0  0  1  0  0
   -1.8480   -0.0600    0.6600 C   0  0  1  1  0  0
   -0.5050    0.7610    0.5760 C   0  0  1  1  0  0
    0.6450   -0.2890    0.3450 C   0  0  1  1  0  0
    2.0540    0.3710    0.2810 C   0  0  2  1  0  0
   -1.9420   -1.4410   -0.0270 C   0  0  1  1  0  0
   -3.1850    0.4220    1.3370 C   0  0  1  1  0  0
    1.9760    1.2950   -0.9590 C   0  0  1  1  0  0
    0.4140   -1.5850    1.1490 C   0  0  0  1  0  0
   -0.8840   -2.3310    0.7010 C   0  0  0  1  0  0
    3.2150   -0.5010   -0.2270 C   0  0  2  1  0  0
   -0.4410    1.7840   -0.5410 C   0  0  0  1  0  0
    0.9270    2.4000   -0.8010 C   0  0  0  1  0  0
    3.4410    1.5910   -1.2850 C   0  0  0  1  0  0
   -3.3900   -2.0480   -0.0580 C   0  0  2  1  0  0
   -0.3040    1.6170    1.8450 C   0  0  0  1  0  0
    2.5980    0.9470    1.6130 C   0  0  0  1  0  0
   -1.5240   -1.2280   -1.4970 C   0  0  0  1  0  0
   -4.3210   -0.5600    1.5340 C   0  0  0  1  0  0
    3.9540   -1.3230    0.8540 C   0  0  0  1  0  0
    3.9900    2.7910   -0.5190 C   0  0  0  1  0  0
    3.6760    1.7440   -2.7840 C   0  0  0  1  0  0
   -4.2180   -1.5440   -1.2340 C   0  0  0  1  0  0
    3.3840   -1.1700    2.2510 C   0  0  0  1  0  0
   -4.9570   -2.3110   -2.1350 C   0  0  0  1  0  0
   -4.3990   -0.2150   -1.6320 C   0  0  0  1  0  0
   -5.5370   -1.4010   -3.0240 C   0  0  0  1  0  0
    0.5560   -0.6680   -0.6650 H   0  0  0  1  0  0
   -3.2710    1.4410    1.7120 H   0  0  0  1  0  0
    1.6220    0.7120   -1.8020 H   0  0  0  1  0  0
    1.2590   -2.2610    1.0360 H   0  0  0  1  0  0
    0.3580   -1.3410    2.2110 H   0  0  0  1  0  0
   -1.3330   -2.7960    1.5790 H   0  0  0  1  0  0
   -0.6130   -3.1610    0.0450 H   0  0  0  1  0  0
    2.8640   -1.1600   -1.0110 H   0  0  0  1  0  0
    0.8880    3.0080   -1.7040 H   0  0  0  1  0  0
    1.1900    3.0670    0.0190 H   0  0  0  1  0  0
   -3.3120   -3.1280   -0.1910 H   0  0  0  1  0  0
    0.3280    2.4840    1.6540 H   0  0  0  1  0  0
    0.1620    1.0300    2.6350 H   0  0  0  1  0  0
   -1.2610    1.9810    2.2200 H   0  0  0  1  0  0
    3.6030    1.3590    1.5110 H   0  0  0  1  0  0
    2.0190    1.7720    2.0110 H   0  0  0  1  0  0
   -0.5540   -1.6790   -1.7140 H   0  0  0  1  0  0
   -1.4560   -0.1650   -1.7280 H   0  0  0  1  0  0
   -2.2550   -1.6700   -2.1730 H   0  0  0  1  0  0
    3.9210   -2.3770    0.5780 H   0  0  0  1  0  0
    5.0160   -1.0690    0.8950 H   0  0  0  1  0  0
    4.9910    2.6030   -0.1320 H   0  0  0  1  0  0
    3.3450    3.0360    0.3270 H   0  0  0  1  0  0
    4.0400    3.6690   -1.1630 H   0  0  0  1  0  0
    4.7180    1.9940   -2.9850 H   0  0  0  1  0  0
    3.4230    0.8240   -3.3090 H   0  0  0  1  0  0
    3.0570    2.5430   -3.1910 H   0  0  0  1  0  0
   -5.0590   -3.3880   -2.1460 H   0  0  0  1  0  0
   -3.9560    0.6390   -1.1370 H   0  0  0  1  0  0
   -6.1770   -1.6740   -3.8530 H   0  0  0  1  0  0
  1  9  1  0
  1 14  1  0
  2 18  1  0
  2 21  1  0
  3 22  1  0
  3 26  1  0
  4 24  1  0
  4 31  1  0
  5 19  2  0
  6 26  2  0
  7 31  2  0
  8 33  1  0
  8 34  1  0
  9 10  1  0
  9 13  1  0
  9 14  1  0
 10 11  1  0
 10 19  1  0
 10 23  1  0
 11 12  1  0
 11 16  1  0
 11 35  1  0
 12 15  1  0
 12 18  1  0
 12 24  1  0
 13 17  1  0
 13 22  1  0
 13 25  1  0
 14 26  1  0
 14 36  1  0
 15 20  1  0
 15 21  1  0
 15 37  1  0
 16 17  1  0
 16 38  1  0
 16 39  1  0
 17 40  1  0
 17 41  1  0
 18 27  1  0
 18 42  1  0
 19 20  1  0
 20 43  1  0
 20 44  1  0
 21 28  1  0
 21 29  1  0
 22 30  1  0
 22 45  1  0
 23 46  1  0
 23 47  1  0
 23 48  1  0
 24 49  1  0
 24 50  1  0
 25 51  1  0
 25 52  1  0
 25 53  1  0
 27 31  1  0
 27 54  1  0
 27 55  1  0
 28 56  1  0
 28 57  1  0
 28 58  1  0
 29 59  1  0
 29 60  1  0
 29 61  1  0
 30 32  1  0
 30 33  2  0
 32 34  2  0
 32 62  1  0
 33 63  1  0
 34 64  1  0
M  END
> <Name>
179651

> <AbsoluteEnergy>
68.0807

> <ConfNumber>
1

> <IonizationIndex>
1

> <NumberOfIonizations>
1

> <NumberOfStereoisomers>
1

> <NumberOfTautomers>
1

> <OBJECTID>
9223372311736025101

> <PUBCHEM_ATOM_DEF_STEREO_COUNT>
9

> <PUBCHEM_ATOM_UDEF_STEREO_COUNT>
0

> <PUBCHEM_BOND_DEF_STEREO_COUNT>
0

> <PUBCHEM_BOND_UDEF_STEREO_COUNT>
0

> <PUBCHEM_CACTVS_TAUTO_COUNT>
2

> <PUBCHEM_COMPONENT_COUNT>
1

> <PUBCHEM_COMPOUND_CID>
179651

> <PUBCHEM_CONFORMER_DIVERSEORDER>
3
1
2

> <PUBCHEM_CONFORMER_ID>
0002BDC300000003

> <PUBCHEM_CONFORMER_RMSD>
0.8

> <PUBCHEM_COORDINATE_TYPE>
2
5
10

> <PUBCHEM_EFFECTIVE_ROTOR_COUNT>
3.2

> <PUBCHEM_FEATURE_SELFOVERLAP>
66.441

> <PUBCHEM_HEAVY_ATOM_COUNT>
34

> <PUBCHEM_ISOTOPIC_ATOM_COUNT>
0

> <PUBCHEM_MMFF94_ENERGY>
139.4009

> <PUBCHEM_MMFF94_PARTIAL_CHARGES>
29
1 -0.3
10 0.16
13 0.09
14 0.05
18 0.28
19 0.45
2 -0.56
20 0.06
21 0.28
22 0.46
24 0.28
26 0.72
27 0.06
3 -0.43
30 -0.18
31 0.66
32 -0.15
33 -0.01
34 -0.01
36 0.1
4 -0.43
5 -0.57
6 -0.57
62 0.15
63 0.15
64 0.15
7 -0.57
8 -0.28
9 -0.04

> <PUBCHEM_PHARMACOPHORE_FEATURES>
13
1 1 acceptor
1 2 acceptor
1 5 acceptor
1 6 acceptor
1 7 acceptor
1 8 acceptor
3 21 28 29 hydrophobe
5 2 12 15 18 21 rings
5 8 30 32 33 34 rings
6 10 11 12 15 19 20 rings
6 4 12 18 24 27 31 rings
6 9 10 11 13 16 17 rings
7 1 3 9 13 14 22 26 rings

> <PUBCHEM_SHAPE_FINGERPRINT>
10319926 262 17203055088417388206
10622 236 18198889474428834919
10928967 22 18041000571116265130
11135926 11 18042132114831362612
11578080 2 18189317113259897597
12107183 9 18268156348703385121
12166972 35 18261105327048558479
12422481 6 18198634241247848602
12553582 1 17676765375324923618
12633257 1 18270972249384349217
12788726 201 17702673314319158071
13140716 1 18410301301978083147
13224815 77 18341336673083551693
13540713 5 18341623641318314989
13544653 18 18333448759259060284
13690498 29 17751650857967445766
13782708 43 16733278944936012859
14790565 3 17760098697651434868
14955137 171 18193846938309913392
15131766 46 17534652553012134549
15238133 3 17130722581901905457
15250474 111 18341047518769119422
15361156 5 18337687321198526494
17349148 13 18410292531824001319
17492 89 18409449202332387466
1813 80 17822305530681289238
19246450 95 17764314941953374712
19319366 153 17906732862571071372
19377110 9 18201715219269150416
20028762 73 18342168973438026278
20511986 3 18411693327302960073
20775530 9 17968660406989824154
21033648 29 17557682700159931738
23559900 14 18336252484129895934
3117164 225 18338524023407928952
3633792 109 18262501689741466359
392239 28 18271239439801071872
4098825 35 12035727553088670506
460360 51 18334585680247293327
46194498 28 15069492447452228022
5104073 3 18342744034860534131
56633871 153 18196373615477336794
6058803 2 18269290104522584793
6086070 43 17846493755542421977
70251023 43 18260539017966455242

> <PUBCHEM_SHAPE_MULTIPOLES>
652.75
12.21
3.65
1.78
4.09
0.03
-0.43
7.78
-3.5
2.02
0.39
-1.5
-0.11
-2.9

> <PUBCHEM_SHAPE_SELFOVERLAP>
1451.963

> <PUBCHEM_SHAPE_VOLUME>
343.5

> <RelativeEnergy>
0

> <StereoisomerIndex>
1

> <TautomerIndex>
1

> <LibDock Warning>
no hit found

> <ErrorText>
LibDock failed

$$$$
442021
  SciTegic09112317153D

 57 63  0  0  0  0            999 V2000
   -3.2540    2.6970   -1.1810 O   0  0  0  1  0  0
   -3.0560   -2.1820   -1.0190 O   0  0  0  1  0  0
    3.2450   -3.7770    0.8990 O   0  0  0  1  0  0
    0.8660   -5.1870    0.8180 O   0  0  0  1  0  0
    1.9980    2.5300    0.1090 N   0  3  1  1  0  0
   -1.5380   -0.8120    0.2290 N   0  3  2  1  0  0
    0.6620    0.4440   -0.0460 C   0  0  2  1  0  0
   -0.8790    0.4900   -0.2620 C   0  0  2  1  0  0
    1.1900    1.5210    0.9590 C   0  0  2  1  0  0
   -1.7870    1.5190    0.4080 C   0  0  1  1  0  0
   -0.9630    2.7840    0.6200 C   0  0  1  1  0  0
    0.1210    2.3860    1.6640 C   0  0  0  1  0  0
    1.4240    0.7680   -1.3600 C   0  0  0  1  0  0
    0.8560   -1.0330    0.2850 C   0  0  0  1  0  0
    2.6130    1.6120   -0.9390 C   0  0  0  1  0  0
   -3.1280    1.5320   -0.3660 C   0  0  2  1  0  0
   -0.3080    3.2960   -0.6500 C   0  0  0  1  0  0
    1.1530    3.6800   -0.5040 C   0  0  0  1  0  0
   -0.3660   -1.7500    0.3220 C   0  0  0  1  0  0
   -3.4890    0.1850   -1.1120 C   0  0  0  1  0  0
   -2.7280   -1.0720   -0.6710 C   0  0  0  1  0  0
    2.0670   -1.7420    0.5070 C   0  0  0  1  0  0
   -0.9210    3.3690   -1.8530 C   0  0  0  1  0  0
   -2.3080    2.8740   -2.2300 C   0  0  0  1  0  0
   -0.3430   -3.1590    0.4840 C   0  0  0  1  0  0
    2.0830   -3.1380    0.6980 C   0  0  0  1  0  0
    0.8700   -3.8550    0.6650 C   0  0  0  1  0  0
    3.2580   -4.8590    1.8180 C   0  0  0  1  0  0
   -0.3860   -5.8550    0.8040 C   0  0  0  1  0  0
   -1.0090    0.5650   -1.3360 H   0  0  0  1  0  0
    1.8460    1.0690    1.6900 H   0  0  0  1  0  0
   -2.0630    1.2200    1.4220 H   0  0  0  1  0  0
   -1.5980    3.5650    1.0400 H   0  0  0  1  0  0
   -0.3130    1.8360    2.4990 H   0  0  0  1  0  0
    0.5740    3.2710    2.1110 H   0  0  0  1  0  0
    0.8240    1.3390   -2.0510 H   0  0  0  1  0  0
    1.7440   -0.1020   -1.9170 H   0  0  0  1  0  0
    3.3830    0.9930   -0.5030 H   0  0  0  1  0  0
    3.0490    2.1510   -1.7660 H   0  0  0  1  0  0
   -3.9070    1.6810    0.3850 H   0  0  0  1  0  0
    1.5760    4.0020   -1.4570 H   0  0  0  1  0  0
    1.2070    4.5500    0.1510 H   0  0  0  1  0  0
   -3.3340    0.2850   -2.1850 H   0  0  0  1  0  0
   -4.5590   -0.0020   -1.0040 H   0  0  0  1  0  0
    3.0020   -1.1970    0.5230 H   0  0  0  1  0  0
   -0.3570    3.8290   -2.6520 H   0  0  0  1  0  0
   -2.2200    1.9620   -2.8180 H   0  0  0  1  0  0
   -2.7490    3.6140   -2.8960 H   0  0  0  1  0  0
   -1.2710   -3.7110    0.4750 H   0  0  0  1  0  0
    4.2050   -5.0660    2.3150 H   0  0  0  1  0  0
    2.9580   -5.7620    1.2860 H   0  0  0  1  0  0
    2.5140   -4.6640    2.5900 H   0  0  0  1  0  0
   -0.2020   -6.9280    0.8510 H   0  0  0  1  0  0
   -1.0060   -5.4370    1.5970 H   0  0  0  1  0  0
   -0.8750   -5.6430   -0.1480 H   0  0  0  1  0  0
    2.7890    2.9700    0.6990 H   0  0  0  1  0  0
   -1.8960   -0.7770    1.2480 H   0  0  0  1  0  0
  1 16  1  0
  1 24  1  0
  2 21  2  0
  3 26  1  0
  3 28  1  0
  4 27  1  0
  4 29  1  0
  5  9  1  0
  5 15  1  0
  5 18  1  0
  5 56  1  0
  6  8  1  0
  6 19  1  0
  6 21  1  0
  6 57  1  0
  7  8  1  0
  7  9  1  0
  7 13  1  0
  7 14  1  0
  8 10  1  0
  8 30  1  0
  9 12  1  0
  9 31  1  0
 10 11  1  0
 10 16  1  0
 10 32  1  0
 11 12  1  0
 11 17  1  0
 11 33  1  0
 12 34  1  0
 12 35  1  0
 13 15  1  0
 13 36  1  0
 13 37  1  0
 14 19  2  0
 14 22  1  0
 15 38  1  0
 15 39  1  0
 16 20  1  0
 16 40  1  0
 17 18  1  0
 17 23  2  0
 18 41  1  0
 18 42  1  0
 19 25  1  0
 20 21  1  0
 20 43  1  0
 20 44  1  0
 22 26  2  0
 22 45  1  0
 23 24  1  0
 23 46  1  0
 24 47  1  0
 24 48  1  0
 25 27  2  0
 25 49  1  0
 26 27  1  0
 28 50  1  0
 28 51  1  0
 28 52  1  0
 29 53  1  0
 29 54  1  0
 29 55  1  0
M  CHG  2   5   1   6   1
M  END
> <Name>
442021

> <AbsoluteEnergy>
89.7222

> <ConfNumber>
1

> <Ionization pH>
7.35_PP

> <IonizationIndex>
1

> <NumberOfIonizations>
3

> <NumberOfStereoisomers>
1

> <NumberOfTautomers>
1

> <OBJECTID>
9223372397635371021

> <PUBCHEM_ATOM_DEF_STEREO_COUNT>
6

> <PUBCHEM_ATOM_UDEF_STEREO_COUNT>
0

> <PUBCHEM_BOND_DEF_STEREO_COUNT>
0

> <PUBCHEM_BOND_UDEF_STEREO_COUNT>
0

> <PUBCHEM_CACTVS_TAUTO_COUNT>
1

> <PUBCHEM_COMPONENT_COUNT>
1

> <PUBCHEM_COMPOUND_CID>
442021

> <PUBCHEM_CONFORMER_DIVERSEORDER>
1

> <PUBCHEM_CONFORMER_ID>
0006BEA500000001

> <PUBCHEM_CONFORMER_RMSD>
0.8

> <PUBCHEM_COORDINATE_TYPE>
2
5
10

> <PUBCHEM_EFFECTIVE_ROTOR_COUNT>
3.4

> <PUBCHEM_FEATURE_SELFOVERLAP>
63.122

> <PUBCHEM_HEAVY_ATOM_COUNT>
29

> <PUBCHEM_ISOTOPIC_ATOM_COUNT>
0

> <PUBCHEM_MMFF94_ENERGY>
137.3317

> <PUBCHEM_MMFF94_PARTIAL_CHARGES>
29
1 -0.56
11 0.14
14 -0.14
15 0.27
16 0.28
17 -0.28
18 0.41
19 0.12
2 -0.57
20 0.06
21 0.57
22 -0.15
23 -0.29
24 0.42
25 -0.15
26 0.08
27 0.08
28 0.28
29 0.28
3 -0.36
4 -0.36
45 0.15
46 0.15
49 0.15
5 -0.81
6 -0.48
7 0.14
8 0.3
9 0.27

> <PUBCHEM_PHARMACOPHORE_FEATURES>
12
1 1 acceptor
1 2 acceptor
1 3 acceptor
1 4 acceptor
1 5 cation
5 5 7 9 13 15 rings
5 6 7 8 14 19 rings
6 14 19 22 25 26 27 rings
6 5 9 11 12 17 18 rings
6 6 8 10 16 20 21 rings
6 7 8 9 10 11 12 rings
7 1 10 11 16 17 23 24 rings

> <PUBCHEM_SHAPE_FINGERPRINT>
10165383 225 17531792615888071535
10675989 125 17036395295405365533
10863032 1 18412542102860746655
10906281 52 18339375131365292788
10948715 1 18264487287450184643
10967382 1 18338229376114466297
1100329 8 17114099963323427811
11578080 2 17130409397402798321
12011746 2 18335976485848398285
12035758 1 18335993059663132729
12156800 1 17181157193585018617
12293681 4 18261955257767749459
12422481 6 17914923992185216555
12553582 1 18339063986712160461
12788726 201 18265615368862888394
13140716 1 18049150082264995593
13224815 77 18412828014791842778
14251751 93 18265891350465702941
14787075 74 18260547810260031311
14790565 3 18123755257819890385
14955137 171 18339938069003245305
15196674 1 18412260618850808004
15209289 33 18333729152357744873
16945 1 18195227018365129191
17349148 13 18113888373984460064
19591789 44 18266456516812113905
19930381 70 17041474489131687291
20775438 99 16906039846905653567
21279426 13 18338515240458018157
22907989 373 18046945677684109476
23557571 272 18410579500617472628
23559900 14 18413105040335220584
3178227 256 18335150774186435241
335352 9 18339360756040785501
3380486 145 18270694189007060818
34934 24 18410567388113333200
392239 28 18041290954123419851
404807 14 16192015457644188062
4058900 60 17607526822391237597
469060 322 15792026618146156107
5104073 3 18413103940480884162
5283173 99 18336262362744840652
59755656 215 18195247711491129613
70251023 43 17839444932900275839
7226269 152 18188477060611078296
9709674 26 18411983551175142276

> <PUBCHEM_SHAPE_MULTIPOLES>
563.37
9.25
3.51
1.27
9.54
1.61
0.12
-0.44
-1.56
-0.96
0.28
-0.06
-0.85
1.24

> <PUBCHEM_SHAPE_SELFOVERLAP>
1278.551

> <PUBCHEM_SHAPE_VOLUME>
291.8

> <RelativeEnergy>
0

> <StereoisomerIndex>
1

> <TautomerIndex>
1

> <LibDock Warning>
no hit found

> <ErrorText>
LibDock failed

$$$$
442021
  SciTegic09112317153D

 55 61  0  0  0  0            999 V2000
   -1.9470   -3.8960    0.5090 O   0  0  0  1  0  0
   -3.8890    0.5830    0.4740 O   0  0  0  1  0  0
    0.9780    4.6930   -1.4790 O   0  0  0  1  0  0
   -1.7540    4.8990   -1.1060 O   0  0  0  1  0  0
    2.7870   -1.4550    0.3590 N   0  0  0  1  0  0
   -1.6060    0.1570    0.4220 N   0  0  0  1  0  0
    0.8060   -0.0320    0.3270 C   0  0  2  1  0  0
   -0.5310   -0.8090    0.5480 C   0  0  2  1  0  0
    1.8640   -0.7630   -0.5600 C   0  0  2  1  0  0
   -0.8940   -1.8870   -0.4830 C   0  0  1  1  0  0
    0.3520   -2.7180   -0.7670 C   0  0  1  1  0  0
    1.3020   -1.7880   -1.5610 C   0  0  0  1  0  0
    1.5590    0.1430    1.6710 C   0  0  0  1  0  0
    0.2680    1.3220   -0.1480 C   0  0  0  1  0  0
    2.8800   -0.6010    1.5330 C   0  0  0  1  0  0
   -2.1940   -2.5980   -0.0320 C   0  0  2  1  0  0
    1.0110   -3.1800    0.5210 C   0  0  0  1  0  0
    2.4950   -2.8890    0.6270 C   0  0  0  1  0  0
   -1.1300    1.4710   -0.0240 C   0  0  0  1  0  0
   -3.1230   -1.6910    0.8610 C   0  0  0  1  0  0
   -2.9690   -0.1960    0.5770 C   0  0  0  1  0  0
    0.9590    2.4520   -0.6650 C   0  0  0  1  0  0
    0.3500   -3.7640    1.5470 C   0  0  0  1  0  0
   -1.1490   -3.9880    1.6840 C   0  0  0  1  0  0
   -1.8470    2.6530   -0.3190 C   0  0  0  1  0  0
    0.2830    3.6550   -0.9960 C   0  0  0  1  0  0
   -1.1170    3.7590   -0.8100 C   0  0  0  1  0  0
    2.3780    4.5360   -1.6580 C   0  0  0  1  0  0
   -1.1030    6.1240   -0.8050 C   0  0  0  1  0  0
   -0.5670   -1.2320    1.5390 H   0  0  0  1  0  0
    2.4440   -0.0310   -1.1060 H   0  0  0  1  0  0
   -1.1530   -1.4120   -1.4340 H   0  0  0  1  0  0
    0.0930   -3.5800   -1.3820 H   0  0  0  1  0  0
    0.7860   -1.2850   -2.3800 H   0  0  0  1  0  0
    2.1090   -2.3590   -2.0240 H   0  0  0  1  0  0
    1.0030   -0.2490    2.5100 H   0  0  0  1  0  0
    1.7590    1.1760    1.9200 H   0  0  0  1  0  0
    3.1260   -1.1640    2.4210 H   0  0  0  1  0  0
    3.6810    0.1070    1.3750 H   0  0  0  1  0  0
   -2.7560   -2.8100   -0.9420 H   0  0  0  1  0  0
    3.0230   -3.4950   -0.1110 H   0  0  0  1  0  0
    2.8930   -3.1830    1.5980 H   0  0  0  1  0  0
   -2.9250   -1.8410    1.9200 H   0  0  0  1  0  0
   -4.1630   -1.9810    0.7150 H   0  0  0  1  0  0
    2.0270    2.3920   -0.8030 H   0  0  0  1  0  0
    0.9530   -4.1070    2.3760 H   0  0  0  1  0  0
   -1.5450   -3.3360    2.4580 H   0  0  0  1  0  0
   -1.2920   -5.0020    2.0530 H   0  0  0  1  0  0
   -2.9150    2.7240   -0.1820 H   0  0  0  1  0  0
    2.9180    5.3920   -2.0620 H   0  0  0  1  0  0
    2.5430    3.6910   -2.3260 H   0  0  0  1  0  0
    2.8190    4.2900   -0.6920 H   0  0  0  1  0  0
   -1.8610    6.9020   -0.7170 H   0  0  0  1  0  0
   -0.4690    5.9690    0.0690 H   0  0  0  1  0  0
   -0.4560    6.3830   -1.6430 H   0  0  0  1  0  0
  1 16  1  0
  1 24  1  0
  2 21  2  0
  3 26  1  0
  3 28  1  0
  4 27  1  0
  4 29  1  0
  5  9  1  0
  5 15  1  0
  5 18  1  0
  6  8  1  0
  6 19  1  0
  6 21  1  0
  7  8  1  0
  7  9  1  0
  7 13  1  0
  7 14  1  0
  8 10  1  0
  8 30  1  0
  9 12  1  0
  9 31  1  0
 10 11  1  0
 10 16  1  0
 10 32  1  0
 11 12  1  0
 11 17  1  0
 11 33  1  0
 12 34  1  0
 12 35  1  0
 13 15  1  0
 13 36  1  0
 13 37  1  0
 14 19  2  0
 14 22  1  0
 15 38  1  0
 15 39  1  0
 16 20  1  0
 16 40  1  0
 17 18  1  0
 17 23  2  0
 18 41  1  0
 18 42  1  0
 19 25  1  0
 20 21  1  0
 20 43  1  0
 20 44  1  0
 22 26  2  0
 22 45  1  0
 23 24  1  0
 23 46  1  0
 24 47  1  0
 24 48  1  0
 25 27  2  0
 25 49  1  0
 26 27  1  0
 28 50  1  0
 28 51  1  0
 28 52  1  0
 29 53  1  0
 29 54  1  0
 29 55  1  0
M  END
> <Name>
442021

> <AbsoluteEnergy>
93.9085

> <ConfNumber>
1

> <Ionization pH>
7.9_DD

> <IonizationIndex>
3

> <NumberOfIonizations>
3

> <NumberOfStereoisomers>
1

> <NumberOfTautomers>
1

> <OBJECTID>
9223372406225305613

> <PUBCHEM_ATOM_DEF_STEREO_COUNT>
6

> <PUBCHEM_ATOM_UDEF_STEREO_COUNT>
0

> <PUBCHEM_BOND_DEF_STEREO_COUNT>
0

> <PUBCHEM_BOND_UDEF_STEREO_COUNT>
0

> <PUBCHEM_CACTVS_TAUTO_COUNT>
1

> <PUBCHEM_COMPONENT_COUNT>
1

> <PUBCHEM_COMPOUND_CID>
442021

> <PUBCHEM_CONFORMER_DIVERSEORDER>
1

> <PUBCHEM_CONFORMER_ID>
0006BEA500000001

> <PUBCHEM_CONFORMER_RMSD>
0.8

> <PUBCHEM_COORDINATE_TYPE>
2
5
10

> <PUBCHEM_EFFECTIVE_ROTOR_COUNT>
3.4

> <PUBCHEM_FEATURE_SELFOVERLAP>
63.122

> <PUBCHEM_HEAVY_ATOM_COUNT>
29

> <PUBCHEM_ISOTOPIC_ATOM_COUNT>
0

> <PUBCHEM_MMFF94_ENERGY>
137.3317

> <PUBCHEM_MMFF94_PARTIAL_CHARGES>
29
1 -0.56
11 0.14
14 -0.14
15 0.27
16 0.28
17 -0.28
18 0.41
19 0.12
2 -0.57
20 0.06
21 0.57
22 -0.15
23 -0.29
24 0.42
25 -0.15
26 0.08
27 0.08
28 0.28
29 0.28
3 -0.36
4 -0.36
45 0.15
46 0.15
49 0.15
5 -0.81
6 -0.48
7 0.14
8 0.3
9 0.27

> <PUBCHEM_PHARMACOPHORE_FEATURES>
12
1 1 acceptor
1 2 acceptor
1 3 acceptor
1 4 acceptor
1 5 cation
5 5 7 9 13 15 rings
5 6 7 8 14 19 rings
6 14 19 22 25 26 27 rings
6 5 9 11 12 17 18 rings
6 6 8 10 16 20 21 rings
6 7 8 9 10 11 12 rings
7 1 10 11 16 17 23 24 rings

> <PUBCHEM_SHAPE_FINGERPRINT>
10165383 225 17531792615888071535
10675989 125 17036395295405365533
10863032 1 18412542102860746655
10906281 52 18339375131365292788
10948715 1 18264487287450184643
10967382 1 18338229376114466297
1100329 8 17114099963323427811
11578080 2 17130409397402798321
12011746 2 18335976485848398285
12035758 1 18335993059663132729
12156800 1 17181157193585018617
12293681 4 18261955257767749459
12422481 6 17914923992185216555
12553582 1 18339063986712160461
12788726 201 18265615368862888394
13140716 1 18049150082264995593
13224815 77 18412828014791842778
14251751 93 18265891350465702941
14787075 74 18260547810260031311
14790565 3 18123755257819890385
14955137 171 18339938069003245305
15196674 1 18412260618850808004
15209289 33 18333729152357744873
16945 1 18195227018365129191
17349148 13 18113888373984460064
19591789 44 18266456516812113905
19930381 70 17041474489131687291
20775438 99 16906039846905653567
21279426 13 18338515240458018157
22907989 373 18046945677684109476
23557571 272 18410579500617472628
23559900 14 18413105040335220584
3178227 256 18335150774186435241
335352 9 18339360756040785501
3380486 145 18270694189007060818
34934 24 18410567388113333200
392239 28 18041290954123419851
404807 14 16192015457644188062
4058900 60 17607526822391237597
469060 322 15792026618146156107
5104073 3 18413103940480884162
5283173 99 18336262362744840652
59755656 215 18195247711491129613
70251023 43 17839444932900275839
7226269 152 18188477060611078296
9709674 26 18411983551175142276

> <PUBCHEM_SHAPE_MULTIPOLES>
563.37
9.25
3.51
1.27
9.54
1.61
0.12
-0.44
-1.56
-0.96
0.28
-0.06
-0.85
1.24

> <PUBCHEM_SHAPE_SELFOVERLAP>
1278.551

> <PUBCHEM_SHAPE_VOLUME>
291.8

> <RelativeEnergy>
0

> <StereoisomerIndex>
1

> <TautomerIndex>
1

> <LibDock Warning>
no hit found

> <ErrorText>
LibDock failed

$$$$
442089
  SciTegic09112317153D

116122  0  0  0  0            999 V2000
   -3.1790   -0.7390   -0.2230 O   0  0  0  1  0  0
    6.0000   -0.6640   -0.2750 O   0  0  0  1  0  0
    4.9040   -1.2870   -2.1260 O   0  0  0  1  0  0
   -4.0200   -0.7970    1.9920 O   0  0  0  1  0  0
   -6.1960    0.9340    0.8800 O   0  0  0  1  0  0
    5.5390   -2.8830    0.1870 O   0  0  0  1  0  0
   -5.7930   -2.2320   -0.8160 O   0  0  0  1  0  0
   -6.8760   -1.4750    2.5500 O   0  0  0  1  0  0
    8.7820   -1.2080    0.1170 O   0  0  0  1  0  0
   -5.0320    2.9070    1.1130 O   0  0  0  1  0  0
   -2.3770   -2.9270    1.7310 O   0  0  0  1  0  0
    9.3080   -3.5590    1.7640 O   0  0  0  1  0  0
    7.5640   -5.7850    1.0760 O   0  0  0  1  0  0
   -8.3410    2.4170   -0.3880 O   0  0  0  1  0  0
   -8.3580    5.2390    0.3060 O   0  0  0  1  0  0
    3.7420   -4.9940   -0.4040 O   0  0  0  1  0  0
   -5.6890    6.3940    0.2750 O   0  0  0  1  0  0
   -2.3890    4.0620    1.1250 O   0  0  0  1  0  0
    0.2210   -0.0660   -1.3180 C   0  0  2  1  0  0
    0.8630    0.6110   -0.0560 C   0  0  2  1  0  0
    2.4060    0.4200    0.0140 C   0  0  1  1  0  0
    3.0180    0.8830   -1.3420 C   0  0  2  1  0  0
   -0.8860   -1.0750   -0.9290 C   0  0  0  1  0  0
   -1.9040   -0.1270   -0.2820 C   0  0  2  1  0  0
    1.2210   -0.7480   -2.2600 C   0  0  0  1  0  0
    0.1230    0.2120    1.2440 C   0  0  0  1  0  0
   -0.6310    0.9750   -2.0730 C   0  0  0  1  0  0
    2.4200    0.1560   -2.5740 C   0  0  0  1  0  0
    4.5730    0.9320   -1.3600 C   0  0  2  1  0  0
    2.9920    1.2860    1.1560 C   0  0  0  1  0  0
   -1.4180    0.2630    1.1290 C   0  0  0  1  0  0
   -1.8780    1.0340   -1.2420 C   0  0  0  1  0  0
    2.7460   -1.0480    0.3110 C   0  0  0  1  0  0
    5.0910    1.7710   -0.1750 C   0  0  0  1  0  0
    4.5260    1.3040    1.1720 C   0  0  0  1  0  0
    5.0660    1.5680   -2.6660 C   0  0  0  1  0  0
    5.1730   -0.4520   -1.2940 C   0  0  0  1  0  0
   -2.8170    1.9910   -1.3450 C   0  0  0  1  0  0
   -4.0410   -0.1400    0.7210 C   0  0  2  1  0  0
   -5.4820   -0.0460    0.1500 C   0  0  1  1  0  0
   -6.2570   -1.3840    0.2170 C   0  0  2  1  0  0
    6.5350   -1.9800   -0.2740 C   0  0  2  1  0  0
   -4.5930   -2.1060    2.0590 C   0  0  1  1  0  0
   -6.0640   -2.1030    1.5720 C   0  0  1  1  0  0
    7.7720   -2.0480    0.6490 C   0  0  1  1  0  0
   -3.7100   -3.1110    1.3100 C   0  0  0  1  0  0
   -6.0400    2.2400    0.3600 C   0  0  2  1  0  0
    8.2960   -3.4950    0.7690 C   0  0  2  1  0  0
    5.9280   -4.2530    0.1960 C   0  0  1  1  0  0
    7.1320   -4.4380    1.1460 C   0  0  1  1  0  0
   -7.3740    3.0240    0.4540 C   0  0  1  1  0  0
   -7.1800    4.4990    0.0310 C   0  0  2  1  0  0
    4.6990   -5.0610    0.6280 C   0  0  0  1  0  0
   -4.7260    4.2250    0.6740 C   0  0  1  1  0  0
   -5.9860    5.1110    0.7950 C   0  0  1  1  0  0
   -3.5630    4.7220    1.5390 C   0  0  0  1  0  0
    0.7100    1.6880   -0.1440 H   0  0  0  1  0  0
    2.7010    1.9240   -1.4480 H   0  0  0  1  0  0
   -0.5390   -1.8540   -0.2630 H   0  0  0  1  0  0
   -1.2890   -1.5650   -1.8060 H   0  0  0  1  0  0
    1.5760   -1.6770   -1.8130 H   0  0  0  1  0  0
    0.7350   -1.0510   -3.1900 H   0  0  0  1  0  0
    0.4320    0.8440    2.0760 H   0  0  0  1  0  0
    0.4130   -0.8010    1.5220 H   0  0  0  1  0  0
   -0.1500    1.9390   -2.1550 H   0  0  0  1  0  0
   -0.8830    0.6420   -3.0710 H   0  0  0  1  0  0
    2.1170    0.9030   -3.3090 H   0  0  0  1  0  0
    3.1750   -0.4490   -3.0770 H   0  0  0  1  0  0
    2.6390    0.9300    2.1260 H   0  0  0  1  0  0
    2.6320    2.3110    1.0590 H   0  0  0  1  0  0
   -1.8330   -0.4040    1.8870 H   0  0  0  1  0  0
   -1.7790    1.2600    1.3850 H   0  0  0  1  0  0
    3.3830   -1.1280    1.1920 H   0  0  0  1  0  0
    1.8380   -1.6290    0.4760 H   0  0  0  1  0  0
    3.2800   -1.4980   -0.5270 H   0  0  0  1  0  0
    6.1820    1.7590   -0.1400 H   0  0  0  1  0  0
    4.8080    2.8170   -0.3240 H   0  0  0  1  0  0
    4.9060    0.3100    1.4070 H   0  0  0  1  0  0
    4.8780    1.9620    1.9640 H   0  0  0  1  0  0
    4.4000    2.3600   -3.0100 H   0  0  0  1  0  0
    5.1290    0.8210   -3.4570 H   0  0  0  1  0  0
    6.0580    2.0000   -2.5340 H   0  0  0  1  0  0
   -2.8030    2.8480   -2.0040 H   0  0  0  1  0  0
   -3.6690    1.8780   -0.6920 H   0  0  0  1  0  0
   -3.6330    0.8590    0.8800 H   0  0  0  1  0  0
   -5.4590    0.3330   -0.8750 H   0  0  0  1  0  0
   -7.3170   -1.2310    0.0030 H   0  0  0  1  0  0
    6.7870   -2.2410   -1.3050 H   0  0  0  1  0  0
   -4.5600   -2.3920    3.1120 H   0  0  0  1  0  0
   -6.4320   -3.1270    1.5150 H   0  0  0  1  0  0
    7.5060   -1.6590    1.6330 H   0  0  0  1  0  0
   -3.7550   -2.9380    0.2350 H   0  0  0  1  0  0
   -4.0030   -4.1340    1.5500 H   0  0  0  1  0  0
   -5.6980    2.1530   -0.6740 H   0  0  0  1  0  0
    8.7380   -3.8110   -0.1780 H   0  0  0  1  0  0
    6.1960   -4.5260   -0.8260 H   0  0  0  1  0  0
    6.8140   -4.2500    2.1740 H   0  0  0  1  0  0
   -7.7540    2.9820    1.4780 H   0  0  0  1  0  0
   -6.9950    4.5530   -1.0450 H   0  0  0  1  0  0
    4.2570   -4.6370    1.5300 H   0  0  0  1  0  0
    4.9620   -6.1080    0.7800 H   0  0  0  1  0  0
   -4.3990    4.1600   -0.3670 H   0  0  0  1  0  0
   -6.2410    5.2350    1.8490 H   0  0  0  1  0  0
   -3.7360    4.4830    2.5880 H   0  0  0  1  0  0
   -3.4160    5.7940    1.4050 H   0  0  0  1  0  0
   -6.4060   -2.9800   -0.8700 H   0  0  0  1  0  0
   -6.8880   -2.0550    3.3270 H   0  0  0  1  0  0
    8.5320   -0.2910    0.3130 H   0  0  0  1  0  0
   -1.8330   -3.5710    1.2490 H   0  0  0  1  0  0
    9.8040   -4.3790    1.6180 H   0  0  0  1  0  0
    7.0990   -6.2710    1.7770 H   0  0  0  1  0  0
   -8.6830    1.6410    0.0840 H   0  0  0  1  0  0
   -8.3190    6.0490   -0.2280 H   0  0  0  1  0  0
    2.9740   -5.5100   -0.1150 H   0  0  0  1  0  0
   -5.3980    6.9430    1.0190 H   0  0  0  1  0  0
   -1.6660    4.3870    1.6820 H   0  0  0  1  0  0
  1 24  1  0
  1 39  1  0
  2 37  1  0
  2 42  1  0
  3 37  2  0
  4 39  1  0
  4 43  1  0
  5 40  1  0
  5 47  1  0
  6 42  1  0
  6 49  1  0
  7 41  1  0
  7106  1  0
  8 44  1  0
  8107  1  0
  9 45  1  0
  9108  1  0
 10 47  1  0
 10 54  1  0
 11 46  1  0
 11109  1  0
 12 48  1  0
 12110  1  0
 13 50  1  0
 13111  1  0
 14 51  1  0
 14112  1  0
 15 52  1  0
 15113  1  0
 16 53  1  0
 16114  1  0
 17 55  1  0
 17115  1  0
 18 56  1  0
 18116  1  0
 19 20  1  0
 19 23  1  0
 19 25  1  0
 19 27  1  0
 20 21  1  0
 20 26  1  0
 20 57  1  0
 21 22  1  0
 21 30  1  0
 21 33  1  0
 22 28  1  0
 22 29  1  0
 22 58  1  0
 23 24  1  0
 23 59  1  0
 23 60  1  0
 24 31  1  0
 24 32  1  0
 25 28  1  0
 25 61  1  0
 25 62  1  0
 26 31  1  0
 26 63  1  0
 26 64  1  0
 27 32  1  0
 27 65  1  0
 27 66  1  0
 28 67  1  0
 28 68  1  0
 29 34  1  0
 29 36  1  0
 29 37  1  0
 30 35  1  0
 30 69  1  0
 30 70  1  0
 31 71  1  0
 31 72  1  0
 32 38  2  0
 33 73  1  0
 33 74  1  0
 33 75  1  0
 34 35  1  0
 34 76  1  0
 34 77  1  0
 35 78  1  0
 35 79  1  0
 36 80  1  0
 36 81  1  0
 36 82  1  0
 38 83  1  0
 38 84  1  0
 39 40  1  0
 39 85  1  0
 40 41  1  0
 40 86  1  0
 41 44  1  0
 41 87  1  0
 42 45  1  0
 42 88  1  0
 43 44  1  0
 43 46  1  0
 43 89  1  0
 44 90  1  0
 45 48  1  0
 45 91  1  0
 46 92  1  0
 46 93  1  0
 47 51  1  0
 47 94  1  0
 48 50  1  0
 48 95  1  0
 49 50  1  0
 49 53  1  0
 49 96  1  0
 50 97  1  0
 51 52  1  0
 51 98  1  0
 52 55  1  0
 52 99  1  0
 53100  1  0
 53101  1  0
 54 55  1  0
 54 56  1  0
 54102  1  0
 55103  1  0
 56104  1  0
 56105  1  0
M  END
> <Name>
442089

> <AbsoluteEnergy>
82.7885

> <ConfNumber>
1

> <IonizationIndex>
1

> <NumberOfIonizations>
1

> <NumberOfStereoisomers>
1

> <NumberOfTautomers>
1

> <OBJECTID>
9223372410520272909

> <PUBCHEM_ATOM_DEF_STEREO_COUNT>
21

> <PUBCHEM_ATOM_UDEF_STEREO_COUNT>
0

> <PUBCHEM_BONDANNOTATIONS>
24  1  6
39  1  5
48  12  6
50  13  5
51  14  6
52  15  5
55  17  6
19  25  6
42  2  6
20  57  5
21  33  6
22  58  5
29  36  5
43  46  5
49  53  6
40  5  6
47  5  5
54  56  5
41  7  5
44  8  6
45  9  5

> <PUBCHEM_BOND_DEF_STEREO_COUNT>
0

> <PUBCHEM_BOND_UDEF_STEREO_COUNT>
0

> <PUBCHEM_CACTVS_COMPLEXITY>
1450

> <PUBCHEM_CACTVS_HBOND_ACCEPTOR>
18

> <PUBCHEM_CACTVS_HBOND_DONOR>
11

> <PUBCHEM_CACTVS_ROTATABLE_BOND>
10

> <PUBCHEM_CACTVS_SUBSKEYS>
AAADcfB8PgAAAAAAAAAAAAAAAAAAAYAAAAA0aNECBgAAAADAAAAAGgAACAAAD1SwgAMCCAAABgCIAgDSCAAAAAAgAAAAAAEAAAgRFBIAIQAiQAAFgAAHIAHI6PyPgAAAAAAAAADAAAYAACAAAYAAAAAAAA==

> <PUBCHEM_CACTVS_TAUTO_COUNT>
1

> <PUBCHEM_CACTVS_TPSA>
295

> <PUBCHEM_COMPONENT_COUNT>
1

> <PUBCHEM_COMPOUND_CANONICALIZED>
1

> <PUBCHEM_COMPOUND_CID>
442089

> <PUBCHEM_COORDINATE_TYPE>
1
5
255

> <PUBCHEM_EXACT_MASS>
804.37796506

> <PUBCHEM_HEAVY_ATOM_COUNT>
56

> <PUBCHEM_ISOTOPIC_ATOM_COUNT>
0

> <PUBCHEM_IUPAC_CAS_NAME>
(1R,4S,5R,9S,10R,13S)-13-[[(2S,3R,4S,5S,6R)-4,5-dihydroxy-6-(hydroxymethyl)-3-[[(2S,3R,4S,5S,6R)-3,4,5-trihydroxy-6-(hydroxymethyl)-2-oxanyl]oxy]-2-oxanyl]oxy]-5,9-dimethyl-14-methylene-5-tetracyclo[1
1.2.1.01,10.04,9]hexadecanecarboxylic acid [(2S,3R,4S,5S,6R)-3,4,5-trihydroxy-6-(hydroxymethyl)-2-oxanyl] ester

> <PUBCHEM_IUPAC_INCHI>
InChI=1S/C38H60O18/c1-16-11-37-9-5-20-35(2,7-4-8-36(20,3)34(50)55-32-29(49)26(46)23(43)18(13-40)52-32)21(37)6-10-38(16,15-37)56-33-30(27(47)24(44)19(14-41)53-33)54-31-28(48)25(45)22(42)17(12-39)51-31/
h17-33,39-49H,1,4-15H2,2-3H3/t17-,18-,19-,20+,21+,22-,23-,24-,25+,26+,27+,28-,29-,30-,31+,32+,33+,35-,36-,37-,38+/m1/s1

> <PUBCHEM_IUPAC_INCHIKEY>
UEDUENGHJMELGK-HYDKPPNVSA-N

> <PUBCHEM_IUPAC_NAME>
[(2S,3R,4S,5S,6R)-3,4,5-trihydroxy-6-(hydroxymethyl)oxan-2-yl] (1R,4S,5R,9S,10R,13S)-13-[(2S,3R,4S,5S,6R)-4,5-dihydroxy-6-(hydroxymethyl)-3-[(2S,3R,4S,5S,6R)-3,4,5-trihydroxy-6-(hydroxymethyl)oxan-2-y
l]oxyoxan-2-yl]oxy-5,9-dimethyl-14-methylidenetetracyclo[11.2.1.01,10.04,9]hexadecane-5-carboxylate

> <PUBCHEM_IUPAC_NAME_MARKUP>
[(2<I>S</I>,3<I>R</I>,4<I>S</I>,5<I>S</I>,6<I>R</I>)-3,4,5-trihydroxy-6-(hydroxymethyl)oxan-2-yl] (1<I>R</I>,4<I>S</I>,5<I>R</I>,9<I>S</I>,10<I>R</I>,13<I>S</I>)-13-[(2<I>S</I>,3<I>R</I>,4<I>S</I>,5<I
>S</I>,6<I>R</I>)-4,5-dihydroxy-6-(hydroxymethyl)-3-[(2<I>S</I>,3<I>R</I>,4<I>S</I>,5<I>S</I>,6<I>R</I>)-3,4,5-trihydroxy-6-(hydroxymethyl)oxan-2-yl]oxyoxan-2-yl]oxy-5,9-dimethyl-14-methylidenetetracy
clo[11.2.1.0<SUP>1,10</SUP>.0<SUP>4,9</SUP>]hexadecane-5-carboxylate

> <PUBCHEM_IUPAC_OPENEYE_NAME>
[(2S,3R,4S,5S,6R)-3,4,5-trihydroxy-6-(hydroxymethyl)tetrahydropyran-2-yl] (1R,4S,5R,9S,10R,13S)-13-[(2S,3R,4S,5S,6R)-4,5-dihydroxy-6-(hydroxymethyl)-3-[(2S,3R,4S,5S,6R)-3,4,5-trihydroxy-6-(hydroxymeth
yl)tetrahydropyran-2-yl]oxy-tetrahydropyran-2-yl]oxy-5,9-dimethyl-14-methylene-tetracyclo[11.2.1.01,10.04,9]hexadecane-5-carboxylate

> <PUBCHEM_IUPAC_SYSTEMATIC_NAME>
[(2S,3R,4S,5S,6R)-6-(hydroxymethyl)-3,4,5-tris(oxidanyl)oxan-2-yl] (1R,4S,5R,9S,10R,13S)-13-[(2S,3R,4S,5S,6R)-6-(hydroxymethyl)-3-[(2S,3R,4S,5S,6R)-6-(hydroxymethyl)-3,4,5-tris(oxidanyl)oxan-2-yl]oxy-
4,5-bis(oxidanyl)oxan-2-yl]oxy-5,9-dimethyl-14-methylidene-tetracyclo[11.2.1.01,10.04,9]hexadecane-5-carboxylate

> <PUBCHEM_IUPAC_TRADITIONAL_NAME>
(1R,4S,5R,9S,10R,13S)-13-[(2S,3R,4S,5S,6R)-4,5-dihydroxy-6-methylol-3-[(2S,3R,4S,5S,6R)-3,4,5-trihydroxy-6-methylol-tetrahydropyran-2-yl]oxy-tetrahydropyran-2-yl]oxy-5,9-dimethyl-14-methylene-tetracyc
lo[11.2.1.01,10.04,9]hexadecane-5-carboxylic acid [(2S,3R,4S,5S,6R)-3,4,5-trihydroxy-6-methylol-tetrahydropyran-2-yl] ester

> <PUBCHEM_MOLECULAR_FORMULA>
C38H60O18

> <PUBCHEM_MOLECULAR_WEIGHT>
804.9

> <PUBCHEM_MONOISOTOPIC_WEIGHT>
804.37796506

> <PUBCHEM_OPENEYE_CAN_SMILES>
CC12CCCC(C1CCC34C2CCC(C3)(C(=C)C4)OC5C(C(C(C(O5)CO)O)O)OC6C(C(C(C(O6)CO)O)O)O)(C)C(=O)OC7C(C(C(C(O7)CO)O)O)O

> <PUBCHEM_OPENEYE_ISO_SMILES>
C[C@@]12CCC[C@@]([C@H]1CC[C@]34[C@H]2CC[C@](C3)(C(=C)C4)O[C@H]5[C@@H]([C@H]([C@@H]([C@H](O5)CO)O)O)O[C@H]6[C@@H]([C@H]([C@@H]([C@H](O6)CO)O)O)O)(C)C(=O)O[C@H]7[C@@H]([C@H]([C@@H]([C@H](O7)CO)O)O)O

> <PUBCHEM_TOTAL_CHARGE>
0

> <PUBCHEM_XLOGP3_AA>
-1.2

> <RelativeEnergy>
0

> <StereoisomerIndex>
1

> <TautomerIndex>
1

> <LibDock Warning>
no hit found

> <ErrorText>
LibDock failed

$$$$
442138
  SciTegic09112317153D

 76 82  0  0  0  0            999 V2000
   -2.3160    2.1860    0.5590 O   0  0  0  1  0  0
   -2.8630   -2.9660    1.1830 O   0  0  0  1  0  0
    2.5700   -0.6250   -2.9120 O   0  0  0  1  0  0
    2.7150    2.4590    1.2980 O   0  0  0  1  0  0
   -3.3150    4.1670    0.2190 O   0  0  0  1  0  0
    3.8790    3.3860    2.9780 O   0  0  0  1  0  0
   -1.5410   -0.1020    0.2030 C   0  0  2  1  0  0
   -0.4450    0.3450   -0.8080 C   0  0  2  1  0  0
   -1.8890   -1.4450   -0.4980 C   0  0  1  1  0  0
    0.3470   -0.9720   -1.0510 C   0  0  2  1  0  0
   -0.4650   -1.9800   -0.2140 C   0  0  1  1  0  0
    1.8140   -0.6860   -0.6010 C   0  0  2  1  0  0
   -2.7420    0.8400    0.3780 C   0  0  2  1  0  0
   -0.9100   -0.5640    1.4930 C   0  0  0  1  0  0
   -3.1140   -2.2920   -0.0350 C   0  0  2  1  0  0
    0.5910    1.3330   -0.3420 C   0  0  0  1  0  0
   -0.2720   -1.7100    1.2560 C   0  0  0  1  0  0
    1.7950    0.7680   -0.1960 C   0  0  0  1  0  0
   -3.7220    0.8350   -0.8050 C   0  0  1  1  0  0
    2.9220   -1.0710   -1.6160 C   0  0  2  1  0  0
   -4.4350   -1.4990    0.1420 C   0  0  0  1  0  0
   -4.6780   -0.3740   -0.8860 C   0  0  0  1  0  0
    3.0310    1.4550    0.3360 C   0  0  2  1  0  0
   -4.3990    2.1890   -0.5440 C   0  0  1  1  0  0
   -0.9920    0.1530    2.8170 C   0  0  0  1  0  0
   -3.2690   -3.4020   -1.0810 C   0  0  0  1  0  0
    3.9830    0.4770    1.0480 C   0  0  1  1  0  0
    4.3470   -0.5180   -1.3290 C   0  0  0  1  0  0
    0.2810    2.7820   -0.0830 C   0  0  0  1  0  0
    4.7840   -0.4820    0.1480 C   0  0  0  1  0  0
   -3.2940    2.9600    0.1160 C   0  0  0  1  0  0
    2.9280   -2.6050   -1.6750 C   0  0  0  1  0  0
    4.7930    1.4910    1.8640 C   0  0  1  1  0  0
   -4.9120    2.8260   -1.8330 C   0  0  0  1  0  0
    3.7590    2.5510    2.1130 C   0  0  0  1  0  0
    5.3610    0.8690    3.1360 C   0  0  0  1  0  0
   -0.8810    0.7020   -1.7320 H   0  0  0  1  0  0
   -2.0480   -1.2850   -1.5610 H   0  0  0  1  0  0
    0.2850   -1.2450   -2.0950 H   0  0  0  1  0  0
   -0.3030   -3.0140   -0.4800 H   0  0  0  1  0  0
    2.0180   -1.2490    0.3020 H   0  0  0  1  0  0
   -3.2740    0.5800    1.2810 H   0  0  0  1  0  0
    0.2730   -2.3340    1.9470 H   0  0  0  1  0  0
   -3.1570    0.8970   -1.7240 H   0  0  0  1  0  0
   -4.5050   -1.0790    1.1440 H   0  0  0  1  0  0
   -5.2730   -2.1940    0.0890 H   0  0  0  1  0  0
   -5.7060   -0.0260   -0.7670 H   0  0  0  1  0  0
   -4.6370   -0.7980   -1.8880 H   0  0  0  1  0  0
    3.5360    1.9530   -0.4810 H   0  0  0  1  0  0
   -5.2090    2.0840    0.1630 H   0  0  0  1  0  0
   -0.2170   -0.1480    3.5240 H   0  0  0  1  0  0
   -1.9600   -0.0360    3.2810 H   0  0  0  1  0  0
   -0.9010    1.2290    2.6610 H   0  0  0  1  0  0
   -4.0860   -4.0810   -0.8340 H   0  0  0  1  0  0
   -2.3560   -3.9920   -1.1570 H   0  0  0  1  0  0
   -3.4760   -2.9780   -2.0630 H   0  0  0  1  0  0
    3.3950   -0.1170    1.7350 H   0  0  0  1  0  0
    4.4570    0.4890   -1.7370 H   0  0  0  1  0  0
    5.0760   -1.1130   -1.8820 H   0  0  0  1  0  0
    1.1240    3.4480   -0.2730 H   0  0  0  1  0  0
   -0.0200    2.9180    0.9560 H   0  0  0  1  0  0
   -0.5470    3.1030   -0.7130 H   0  0  0  1  0  0
    4.7340   -1.4890    0.5630 H   0  0  0  1  0  0
    5.8400   -0.2080    0.1870 H   0  0  0  1  0  0
    3.6380   -2.9800   -2.4090 H   0  0  0  1  0  0
    1.9400   -2.9820   -1.9420 H   0  0  0  1  0  0
    3.1960   -3.0270   -0.7070 H   0  0  0  1  0  0
    5.5890    1.9210    1.2720 H   0  0  0  1  0  0
   -5.3530    3.8060   -1.6540 H   0  0  0  1  0  0
   -5.6730    2.1970   -2.2970 H   0  0  0  1  0  0
   -4.1020    2.9520   -2.5500 H   0  0  0  1  0  0
    5.9020    1.6120    3.7210 H   0  0  0  1  0  0
    4.5630    0.4460    3.7490 H   0  0  0  1  0  0
    6.0570    0.0650    2.8950 H   0  0  0  1  0  0
   -3.6550   -3.4820    1.3950 H   0  0  0  1  0  0
    3.2590   -0.9370   -3.5190 H   0  0  0  1  0  0
  1 13  1  0
  1 31  1  0
  2 15  1  0
  2 75  1  0
  3 20  1  0
  3 76  1  0
  4 23  1  0
  4 35  1  0
  5 31  2  0
  6 35  2  0
  7  8  1  0
  7  9  1  0
  7 13  1  0
  7 14  1  0
  8 10  1  0
  8 16  1  0
  8 37  1  0
  9 11  1  0
  9 15  1  0
  9 38  1  0
 10 11  1  0
 10 12  1  0
 10 39  1  0
 11 17  1  0
 11 40  1  0
 12 18  1  0
 12 20  1  0
 12 41  1  0
 13 19  1  0
 13 42  1  0
 14 17  2  0
 14 25  1  0
 15 21  1  0
 15 26  1  0
 16 18  2  0
 16 29  1  0
 17 43  1  0
 18 23  1  0
 19 22  1  0
 19 24  1  0
 19 44  1  0
 20 28  1  0
 20 32  1  0
 21 22  1  0
 21 45  1  0
 21 46  1  0
 22 47  1  0
 22 48  1  0
 23 27  1  0
 23 49  1  0
 24 31  1  0
 24 34  1  0
 24 50  1  0
 25 51  1  0
 25 52  1  0
 25 53  1  0
 26 54  1  0
 26 55  1  0
 26 56  1  0
 27 30  1  0
 27 33  1  0
 27 57  1  0
 28 30  1  0
 28 58  1  0
 28 59  1  0
 29 60  1  0
 29 61  1  0
 29 62  1  0
 30 63  1  0
 30 64  1  0
 32 65  1  0
 32 66  1  0
 32 67  1  0
 33 35  1  0
 33 36  1  0
 33 68  1  0
 34 69  1  0
 34 70  1  0
 34 71  1  0
 36 72  1  0
 36 73  1  0
 36 74  1  0
M  END
> <Name>
442138

> <AbsoluteEnergy>
66.0078

> <ConfNumber>
1

> <IonizationIndex>
1

> <NumberOfIonizations>
1

> <NumberOfStereoisomers>
1

> <NumberOfTautomers>
1

> <OBJECTID>
9223372414815240205

> <PUBCHEM_ATOM_DEF_STEREO_COUNT>
14

> <PUBCHEM_ATOM_UDEF_STEREO_COUNT>
0

> <PUBCHEM_BOND_DEF_STEREO_COUNT>
0

> <PUBCHEM_BOND_UDEF_STEREO_COUNT>
0

> <PUBCHEM_CACTVS_TAUTO_COUNT>
4

> <PUBCHEM_COMPONENT_COUNT>
1

> <PUBCHEM_COMPOUND_CID>
442138

> <PUBCHEM_CONFORMER_DIVERSEORDER>
1

> <PUBCHEM_CONFORMER_ID>
0006BF1A00000001

> <PUBCHEM_CONFORMER_RMSD>
0.8

> <PUBCHEM_COORDINATE_TYPE>
2
5
10

> <PUBCHEM_EFFECTIVE_ROTOR_COUNT>
2

> <PUBCHEM_FEATURE_SELFOVERLAP>
61.168

> <PUBCHEM_HEAVY_ATOM_COUNT>
36

> <PUBCHEM_ISOTOPIC_ATOM_COUNT>
0

> <PUBCHEM_MMFF94_ENERGY>
145.3332

> <PUBCHEM_MMFF94_PARTIAL_CHARGES>
27
1 -0.43
11 0.14
12 0.14
13 0.28
14 -0.28
15 0.28
16 -0.28
17 -0.29
18 -0.28
2 -0.68
20 0.28
23 0.42
24 0.06
25 0.14
29 0.14
3 -0.68
31 0.66
33 0.06
35 0.66
4 -0.43
43 0.15
5 -0.57
6 -0.57
65 0.4
7 0.14
70 0.4
8 0.14

> <PUBCHEM_PHARMACOPHORE_FEATURES>
12
1 2 acceptor
1 2 donor
1 3 acceptor
1 3 donor
1 5 acceptor
1 6 acceptor
5 1 13 19 24 31 rings
5 4 23 27 33 35 rings
5 8 10 12 16 18 rings
7 12 18 20 23 27 28 30 rings
7 7 8 9 10 11 14 17 rings
7 7 9 13 15 19 21 22 rings

> <PUBCHEM_SHAPE_FINGERPRINT>
10165383 225 17971475100294920460
10290309 65 18267875994714067502
10369192 42 17980474891464941608
10675989 125 16967727465197126653
10764073 3 17986695717679161697
1100329 8 16971670313767152617
11045977 3 18412824690001742009
11370993 144 18273219703213396641
12422481 6 18128828601990847975
12623949 98 17985001528526521127
12633046 712 18189039907353448070
12788726 201 15792001226362786461
131258 38 14395564611053131175
13224815 77 17895175727830522864
13402501 40 18411421752146875618
13540713 4 18339349838113028280
13583140 156 18272645779107006253
13757389 114 16465591032015236548
13782708 43 18410576188565366698
14790565 3 17615972101815074685
15064986 96 17059237953913371215
15131766 46 16628258073606820937
15361156 5 18412262865319346213
17349148 13 14779532479438394312
17913733 40 17701808015726694528
1813 80 17096080419796306423
18608769 82 18337114570245260402
20511986 3 15791726356755555221
20609170 17 18195277509622204006
21033648 29 18263346011508551821
21792961 116 18271251513561133414
22122407 14 16988571221094612113
22182313 1 18339347647916843752
22393880 68 18335416829459945434
23559900 14 18408601469939632780
23569943 247 15840154265155449286
244849 19 18201707475480143160
350125 39 18408609183684903224
4015057 19 17987498386563059349
4058900 60 17615974301107472361
4098825 35 18114187394198175598
460360 51 18059026003006203720
46194498 28 18335145340820476172
469060 322 16515402967222621583
508706 21 18335688464397321527
6287921 2 18192147311702094324
6823239 73 18410006654790545200

> <PUBCHEM_SHAPE_MULTIPOLES>
705.65
11.57
3.96
2.08
6.42
0.19
0.38
4.34
0.15
-2.02
-0.74
0.08
-0.32
4.62

> <PUBCHEM_SHAPE_SELFOVERLAP>
1567.906

> <PUBCHEM_SHAPE_VOLUME>
382.4

> <RelativeEnergy>
0

> <StereoisomerIndex>
1

> <TautomerIndex>
1

> <LibDock Warning>
no hit found

> <ErrorText>
LibDock failed

$$$$
442439
  SciTegic09112317153D

 77 81  0  0  0  0            999 V2000
   -3.1020   -0.9060   -1.4270 O   0  0  0  1  0  0
   -1.8710    2.1840    0.1480 O   0  0  0  1  0  0
   -2.7710   -3.1230   -0.7110 O   0  0  0  1  0  0
   -1.2670   -0.0210    0.5040 O   0  0  0  1  0  0
   -5.1700    1.3280   -1.9680 O   0  0  0  1  0  0
   -2.1440    3.0490   -2.6610 O   0  0  0  1  0  0
   -5.3770   -2.8440    0.6350 O   0  0  0  1  0  0
   -6.8160   -3.1870   -1.7730 O   0  0  0  1  0  0
   -4.8470   -4.7170   -3.2650 O   0  0  0  1  0  0
   -3.7910    3.8410    1.7100 O   0  0  0  1  0  0
    3.3710    0.9950    0.9390 O   0  0  0  1  0  0
    1.9610   -3.2780   -0.7790 O   0  0  0  1  0  0
    4.5770   -2.5880   -0.5550 O   0  0  0  1  0  0
    5.4060    5.3010    1.8190 O   0  0  0  1  0  0
    8.1200    4.9510    1.7960 O   0  0  0  1  0  0
   -3.2020    0.4110   -0.9190 C   0  0  2  1  0  0
   -3.7560    1.3510   -2.0200 C   0  0  2  1  0  0
   -3.2610    2.8090   -1.8200 C   0  0  1  1  0  0
   -3.4710   -1.8960   -0.4870 C   0  0  2  1  0  0
   -1.8110    0.8880   -0.4450 C   0  0  1  1  0  0
   -5.0050   -2.1170   -0.5260 C   0  0  1  1  0  0
   -2.8570    3.0930   -0.3510 C   0  0  1  1  0  0
   -5.4340   -2.8680   -1.8080 C   0  0  1  1  0  0
   -4.5710   -4.1360   -2.0030 C   0  0  2  1  0  0
   -3.0640   -3.7990   -1.9320 C   0  0  2  1  0  0
   -4.0580    3.0210    0.5960 C   0  0  0  1  0  0
   -2.1750   -5.0460   -1.9680 C   0  0  0  1  0  0
    0.0150   -0.3860    0.3600 C   0  0  0  1  0  0
    1.0500    0.5130    0.7100 C   0  0  0  1  0  0
    0.3310   -1.6720   -0.1340 C   0  0  0  1  0  0
    2.4030    0.1320    0.5640 C   0  0  0  1  0  0
    2.7220   -1.1480    0.0290 C   0  0  0  1  0  0
    4.7020    0.5290    1.1880 C   0  0  1  1  0  0
    1.6820   -2.0570   -0.3010 C   0  0  0  1  0  0
    5.1620   -0.4180    0.0630 C   0  0  0  1  0  0
    4.1500   -1.5150   -0.1930 C   0  0  0  1  0  0
    5.6070    1.7000    1.3480 C   0  0  0  1  0  0
    5.0670    2.9880    1.5120 C   0  0  0  1  0  0
    7.0010    1.5190    1.3370 C   0  0  0  1  0  0
    5.9180    4.0960    1.6650 C   0  0  0  1  0  0
    7.8520    2.6270    1.4880 C   0  0  0  1  0  0
    7.3140    3.9160    1.6540 C   0  0  0  1  0  0
    9.5130    4.7410    1.6110 C   0  0  0  1  0  0
   -3.8670    0.3650   -0.0540 H   0  0  0  1  0  0
   -3.4900    0.9970   -3.0190 H   0  0  0  1  0  0
   -4.0140    3.5320   -2.1420 H   0  0  0  1  0  0
   -3.1590   -1.5200    0.4870 H   0  0  0  1  0  0
   -1.1230    0.9400   -1.2900 H   0  0  0  1  0  0
   -5.5240   -1.1580   -0.4630 H   0  0  0  1  0  0
   -2.4320    4.0950   -0.2620 H   0  0  0  1  0  0
   -5.2930   -2.2020   -2.6620 H   0  0  0  1  0  0
   -4.8180   -4.8790   -1.2430 H   0  0  0  1  0  0
   -2.7800   -3.1410   -2.7560 H   0  0  0  1  0  0
   -4.2080    2.0020    0.9530 H   0  0  0  1  0  0
   -4.9580    3.3960    0.1070 H   0  0  0  1  0  0
   -1.1170   -4.7950   -1.8870 H   0  0  0  1  0  0
   -2.3160   -5.5930   -2.8980 H   0  0  0  1  0  0
   -2.4200   -5.7180   -1.1450 H   0  0  0  1  0  0
    0.8040    1.4940    1.0910 H   0  0  0  1  0  0
   -0.4620   -2.3610   -0.3870 H   0  0  0  1  0  0
    4.6890   -0.0160    2.1330 H   0  0  0  1  0  0
    5.3090    0.1370   -0.8670 H   0  0  0  1  0  0
    6.1280   -0.8610    0.3140 H   0  0  0  1  0  0
    3.9970    3.1290    1.5230 H   0  0  0  1  0  0
    7.4210    0.5320    1.2110 H   0  0  0  1  0  0
    8.9240    2.4860    1.4790 H   0  0  0  1  0  0
    9.8760    4.1220    2.4300 H   0  0  0  1  0  0
    9.6680    4.3500    0.6050 H   0  0  0  1  0  0
   10.0130    5.7070    1.6760 H   0  0  0  1  0  0
   -5.4950    1.7810   -2.7620 H   0  0  0  1  0  0
   -1.9530    3.9990   -2.6170 H   0  0  0  1  0  0
   -5.2540   -2.2550    1.3940 H   0  0  0  1  0  0
   -7.0880   -3.3830   -2.6840 H   0  0  0  1  0  0
   -4.6490   -5.6650   -3.1930 H   0  0  0  1  0  0
   -4.5610    3.7840    2.2980 H   0  0  0  1  0  0
    2.8060   -3.6910   -0.5600 H   0  0  0  1  0  0
    4.4470    5.4090    1.8250 H   0  0  0  1  0  0
  1 16  1  0
  1 19  1  0
  2 20  1  0
  2 22  1  0
  3 19  1  0
  3 25  1  0
  4 20  1  0
  4 28  1  0
  5 17  1  0
  5 70  1  0
  6 18  1  0
  6 71  1  0
  7 21  1  0
  7 72  1  0
  8 23  1  0
  8 73  1  0
  9 24  1  0
  9 74  1  0
 10 26  1  0
 10 75  1  0
 11 31  1  0
 11 33  1  0
 12 34  1  0
 12 76  1  0
 13 36  2  0
 14 40  1  0
 14 77  1  0
 15 42  1  0
 15 43  1  0
 16 17  1  0
 16 20  1  0
 16 44  1  0
 17 18  1  0
 17 45  1  0
 18 22  1  0
 18 46  1  0
 19 21  1  0
 19 47  1  0
 20 48  1  0
 21 23  1  0
 21 49  1  0
 22 26  1  0
 22 50  1  0
 23 24  1  0
 23 51  1  0
 24 25  1  0
 24 52  1  0
 25 27  1  0
 25 53  1  0
 26 54  1  0
 26 55  1  0
 27 56  1  0
 27 57  1  0
 27 58  1  0
 28 29  2  0
 28 30  1  0
 29 31  1  0
 29 59  1  0
 30 34  2  0
 30 60  1  0
 31 32  2  0
 32 34  1  0
 32 36  1  0
 33 35  1  0
 33 37  1  0
 33 61  1  0
 35 36  1  0
 35 62  1  0
 35 63  1  0
 37 38  2  0
 37 39  1  0
 38 40  1  0
 38 64  1  0
 39 41  2  0
 39 65  1  0
 40 42  2  0
 41 42  1  0
 41 66  1  0
 43 67  1  0
 43 68  1  0
 43 69  1  0
M  END
> <Name>
442439

> <AbsoluteEnergy>
66.3042

> <ConfNumber>
1

> <Ionization pH>
7.5

> <IonizationIndex>
1

> <NumberOfIonizations>
1

> <NumberOfStereoisomers>
1

> <NumberOfTautomers>
2

> <OBJECTID>
9223372431995109389

> <PUBCHEM_ATOM_DEF_STEREO_COUNT>
11

> <PUBCHEM_ATOM_UDEF_STEREO_COUNT>
0

> <PUBCHEM_BOND_DEF_STEREO_COUNT>
0

> <PUBCHEM_BOND_UDEF_STEREO_COUNT>
0

> <PUBCHEM_CACTVS_TAUTO_COUNT>
25

> <PUBCHEM_COMPONENT_COUNT>
1

> <PUBCHEM_COMPOUND_CID>
442439

> <PUBCHEM_CONFORMER_DIVERSEORDER>
1
91
79
32
29
78
39
26
73
99
101
108
24
98
21
45
49
89
95
132
43
47
80
133
105
107
30
113
118
115
71
109
67
90
48
131
28
75
59
23
68
93
66
88
37
82
74
53
117
63
55
100
15
36
126
86
77
9
83
123
35
121
46
62
122
70
114
104
18
27
31
50
97
72
85
84
110
25
13
56
17
41
51
112
106
111
116
64
119
128
40
103
54
12
52
102
34
130
125
127
76
38
129
6
60
120
96
58
124
14
42
57
33
20
7
94
65
92
134
87
22
8
81
61
11
69
4
16
5
2
19
10
44
3

> <PUBCHEM_CONFORMER_ID>
0006C04700000001

> <PUBCHEM_CONFORMER_RMSD>
1.2

> <PUBCHEM_COORDINATE_TYPE>
2
5
10

> <PUBCHEM_EFFECTIVE_ROTOR_COUNT>
10

> <PUBCHEM_FEATURE_SELFOVERLAP>
132.121

> <PUBCHEM_HEAVY_ATOM_COUNT>
43

> <PUBCHEM_ISOTOPIC_ATOM_COUNT>
0

> <PUBCHEM_MMFF94_ENERGY>
147.6072

> <PUBCHEM_MMFF94_PARTIAL_CHARGES>
55
1 -0.56
10 -0.68
11 -0.36
12 -0.53
13 -0.57
14 -0.53
15 -0.36
16 0.28
17 0.28
18 0.28
19 0.56
2 -0.56
20 0.56
21 0.28
22 0.28
23 0.28
24 0.28
25 0.28
26 0.28
28 0.08
29 -0.15
3 -0.56
30 -0.15
31 0.08
32 0.09
33 0.42
34 0.08
35 0.06
36 0.42
37 -0.14
38 -0.15
39 -0.15
4 -0.36
40 0.08
41 -0.15
42 0.08
43 0.28
5 -0.68
59 0.4
6 -0.68
60 0.4
61 0.4
62 0.4
63 0.4
64 0.4
65 0.15
66 0.15
7 -0.68
70 0.15
71 0.15
72 0.45
73 0.15
74 0.45
8 -0.68
9 -0.68

> <PUBCHEM_PHARMACOPHORE_FEATURES>
26
1 1 acceptor
1 10 acceptor
1 10 donor
1 11 acceptor
1 12 donor
1 13 acceptor
1 14 donor
1 15 acceptor
1 2 acceptor
1 3 acceptor
1 4 acceptor
1 5 acceptor
1 5 donor
1 6 acceptor
1 6 donor
1 7 acceptor
1 7 donor
1 8 acceptor
1 8 donor
1 9 acceptor
1 9 donor
6 11 31 32 33 35 36 rings
6 2 16 17 18 20 22 rings
6 28 29 30 31 32 34 rings
6 3 19 21 23 24 25 rings
6 37 38 39 40 41 42 rings

> <PUBCHEM_SHAPE_FINGERPRINT>
10985338 15 16844706730022920242
11991303 11 17749671912419523083
12107183 9 9222937162863194005
12120059 20 18336543945401917027
12144603 126 18272097063856884977
1361 2 18408327692108857800
13617811 41 18335980955987187337
13692114 37 18411414034365107162
13782708 43 17060330847234017965
14068700 686 18114178580197485437
14767858 380 18409733953973077532
15082195 135 18262515884260349440
15320295 44 18196095434576388614
15361156 5 18336550418223677593
15538507 32 18341331188156925089
15705408 1 17758697559323731078
19319366 153 18336538356874478487
21033648 29 12973892545891851884
21360443 126 18188209926145099018
22149856 69 18200597995343900505
22899556 105 18200606783021385774
23516275 137 17202229406920267631
23522609 53 17987542350091304313
23559900 14 17836074577336025216
24771750 20 17827367888569841565
3103668 31 17903929094682373530
3504750 166 16388448626396359866
437795 51 18409728504181863631
44880168 125 16343412921857424245
4573279 73 18340206293246055919
5912855 24 18127135165290421297
6058803 2 17906176144182186200
86090 222 18200299030828324584

> <PUBCHEM_SHAPE_MULTIPOLES>
796.88
22.16
6.06
1.8
30.92
4.01
-1.14
1.44
-13.22
-4.92
2.03
-0.57
-0.31
-1.53

> <PUBCHEM_SHAPE_SELFOVERLAP>
1720.962

> <PUBCHEM_SHAPE_VOLUME>
431.6

> <RelativeEnergy>
0

> <StereoisomerIndex>
1

> <TautomerIndex>
1

> <LibDock Warning>
no hit found

> <ErrorText>
LibDock failed

$$$$
442439
  SciTegic09112317153D

 77 81  0  0  0  0            999 V2000
   -2.9960    1.8240    0.1570 O   0  0  0  1  0  0
   -1.5230    0.8040    2.5430 O   0  0  0  1  0  0
   -0.8890    2.1520   -0.7440 O   0  0  0  1  0  0
   -1.9670   -1.3270    1.6580 O   0  0  0  1  0  0
   -4.8180   -0.6060    2.1200 O   0  0  0  1  0  0
   -3.7500    2.7540    2.9250 O   0  0  0  1  0  0
   -3.7810    1.8820   -2.8410 O   0  0  0  1  0  0
   -2.2730    3.6360   -4.3360 O   0  0  0  1  0  0
    0.4590    2.8440   -4.0080 O   0  0  0  1  0  0
   -1.2650   -1.0000    4.5740 O   0  0  0  1  0  0
    2.7000   -2.1450    1.9630 O   0  0  0  1  0  0
   -0.0810   -4.4250   -1.2420 O   0  0  0  1  0  0
    2.4240   -5.1870   -0.9140 O   0  0  0  1  0  0
    6.4230   -1.3450   -2.6980 O   0  0  0  1  0  0
    4.9960    0.9760   -2.9530 O   0  0  0  1  0  0
   -3.2110    0.5660    0.7670 C   0  0  2  1  0  0
   -4.3400    0.6920    1.8150 C   0  0  2  1  0  0
   -3.8470    1.3540    3.1240 C   0  0  1  1  0  0
   -2.2200    1.7470   -1.0230 C   0  0  2  1  0  0
   -1.8780    0.0630    1.3750 C   0  0  1  1  0  0
   -2.8350    2.6640   -2.1250 C   0  0  1  1  0  0
   -2.4780    0.8130    3.6060 C   0  0  1  1  0  0
   -1.7510    3.2720   -3.0650 C   0  0  1  1  0  0
   -0.5600    2.2960   -3.1900 C   0  0  2  1  0  0
    0.0470    1.9410   -1.8010 C   0  0  2  1  0  0
   -2.5670   -0.5850    4.2360 C   0  0  0  1  0  0
    0.5320    0.4890   -1.7270 C   0  0  0  1  0  0
   -0.9170   -2.0050    1.2040 C   0  0  0  1  0  0
    0.4170   -1.7780    1.8020 C   0  0  0  1  0  0
   -1.0680   -2.8910    0.2000 C   0  0  0  1  0  0
    1.5170   -2.4470    1.3980 C   0  0  0  1  0  0
    1.3950   -3.4950    0.3480 C   0  0  0  1  0  0
    3.8870   -2.5640    1.2760 C   0  0  1  1  0  0
    0.0760   -3.6680   -0.3100 C   0  0  0  1  0  0
    3.7520   -4.0230    0.8030 C   0  0  0  1  0  0
    2.4700   -4.2550    0.0370 C   0  0  0  1  0  0
    4.1810   -1.6250    0.1530 C   0  0  0  1  0  0
    5.1930   -1.9310   -0.7730 C   0  0  0  1  0  0
    3.4490   -0.4330    0.0220 C   0  0  0  1  0  0
    5.4740   -1.0510   -1.8320 C   0  0  0  1  0  0
    3.7290    0.4490   -1.0350 C   0  0  0  1  0  0
    4.7410    0.1430   -1.9630 C   0  0  0  1  0  0
    4.2820    2.2020   -2.9960 C   0  0  0  1  0  0
   -3.5140   -0.0990   -0.0430 H   0  0  0  1  0  0
   -5.1990    1.2260    1.4040 H   0  0  0  1  0  0
   -4.5900    1.2340    3.9160 H   0  0  0  1  0  0
   -2.1880    0.6970   -1.3220 H   0  0  0  1  0  0
   -1.0630    0.1850    0.6590 H   0  0  0  1  0  0
   -3.3960    3.4900   -1.6850 H   0  0  0  1  0  0
   -2.0730    1.4740    4.3720 H   0  0  0  1  0  0
   -1.3910    4.1970   -2.6130 H   0  0  0  1  0  0
   -0.9060    1.3860   -3.6840 H   0  0  0  1  0  0
    0.8850    2.5960   -1.5590 H   0  0  0  1  0  0
   -2.9770   -1.3010    3.5250 H   0  0  0  1  0  0
   -3.1640   -0.5580    5.1490 H   0  0  0  1  0  0
    0.9180    0.2390   -0.7400 H   0  0  0  1  0  0
    1.3300    0.3130   -2.4500 H   0  0  0  1  0  0
   -0.2800   -0.2010   -1.9520 H   0  0  0  1  0  0
    0.5120   -1.0410    2.5880 H   0  0  0  1  0  0
   -2.0440   -3.0380   -0.2390 H   0  0  0  1  0  0
    4.7140   -2.4850    1.9830 H   0  0  0  1  0  0
    4.6070   -4.3170    0.1930 H   0  0  0  1  0  0
    3.7580   -4.6850    1.6700 H   0  0  0  1  0  0
    5.7580   -2.8480   -0.6740 H   0  0  0  1  0  0
    2.6720   -0.1900    0.7320 H   0  0  0  1  0  0
    3.1660    1.3660   -1.1330 H   0  0  0  1  0  0
    4.7070    2.8170   -3.7880 H   0  0  0  1  0  0
    3.2200    1.9740   -3.0780 H   0  0  0  1  0  0
    4.4380    2.7220   -2.0490 H   0  0  0  1  0  0
   -5.6210   -0.4960    2.6540 H   0  0  0  1  0  0
   -3.6050    3.1580    3.7950 H   0  0  0  1  0  0
   -4.5380    1.7380   -2.2520 H   0  0  0  1  0  0
   -1.6500    4.2620   -4.7320 H   0  0  0  1  0  0
    1.1120    2.1430   -4.1600 H   0  0  0  1  0  0
   -1.3390   -1.8810    4.9710 H   0  0  0  1  0  0
    6.9200   -2.1670   -2.5940 H   0  0  0  1  0  0
    1.9190   -5.0170   -1.7190 H   0  0  0  1  0  0
  1 16  1  0
  1 19  1  0
  2 20  1  0
  2 22  1  0
  3 19  1  0
  3 25  1  0
  4 20  1  0
  4 28  1  0
  5 17  1  0
  5 70  1  0
  6 18  1  0
  6 71  1  0
  7 21  1  0
  7 72  1  0
  8 23  1  0
  8 73  1  0
  9 24  1  0
  9 74  1  0
 10 26  1  0
 10 75  1  0
 11 31  1  0
 11 33  1  0
 12 34  2  0
 13 36  1  0
 13 77  1  0
 14 40  1  0
 14 76  1  0
 15 42  1  0
 15 43  1  0
 16 17  1  0
 16 20  1  0
 16 44  1  0
 17 18  1  0
 17 45  1  0
 18 22  1  0
 18 46  1  0
 19 21  1  0
 19 47  1  0
 20 48  1  0
 21 23  1  0
 21 49  1  0
 22 26  1  0
 22 50  1  0
 23 24  1  0
 23 51  1  0
 24 25  1  0
 24 52  1  0
 25 27  1  0
 25 53  1  0
 26 54  1  0
 26 55  1  0
 27 56  1  0
 27 57  1  0
 27 58  1  0
 28 29  1  0
 28 30  2  0
 29 31  2  0
 29 59  1  0
 30 34  1  0
 30 60  1  0
 31 32  1  0
 32 34  1  0
 32 36  2  0
 33 35  1  0
 33 37  1  0
 33 61  1  0
 35 36  1  0
 35 62  1  0
 35 63  1  0
 37 38  2  0
 37 39  1  0
 38 40  1  0
 38 64  1  0
 39 41  2  0
 39 65  1  0
 40 42  2  0
 41 42  1  0
 41 66  1  0
 43 67  1  0
 43 68  1  0
 43 69  1  0
M  END
> <Name>
442439

> <AbsoluteEnergy>
62.878

> <ConfNumber>
1

> <Ionization pH>
7.5

> <IonizationIndex>
1

> <NumberOfIonizations>
1

> <NumberOfStereoisomers>
1

> <NumberOfTautomers>
2

> <OBJECTID>
9223372436290076685

> <PUBCHEM_ATOM_DEF_STEREO_COUNT>
11

> <PUBCHEM_ATOM_UDEF_STEREO_COUNT>
0

> <PUBCHEM_BOND_DEF_STEREO_COUNT>
0

> <PUBCHEM_BOND_UDEF_STEREO_COUNT>
0

> <PUBCHEM_CACTVS_TAUTO_COUNT>
25

> <PUBCHEM_COMPONENT_COUNT>
1

> <PUBCHEM_COMPOUND_CID>
442439

> <PUBCHEM_CONFORMER_DIVERSEORDER>
1
91
79
32
29
78
39
26
73
99
101
108
24
98
21
45
49
89
95
132
43
47
80
133
105
107
30
113
118
115
71
109
67
90
48
131
28
75
59
23
68
93
66
88
37
82
74
53
117
63
55
100
15
36
126
86
77
9
83
123
35
121
46
62
122
70
114
104
18
27
31
50
97
72
85
84
110
25
13
56
17
41
51
112
106
111
116
64
119
128
40
103
54
12
52
102
34
130
125
127
76
38
129
6
60
120
96
58
124
14
42
57
33
20
7
94
65
92
134
87
22
8
81
61
11
69
4
16
5
2
19
10
44
3

> <PUBCHEM_CONFORMER_ID>
0006C04700000001

> <PUBCHEM_CONFORMER_RMSD>
1.2

> <PUBCHEM_COORDINATE_TYPE>
2
5
10

> <PUBCHEM_EFFECTIVE_ROTOR_COUNT>
10

> <PUBCHEM_FEATURE_SELFOVERLAP>
132.121

> <PUBCHEM_HEAVY_ATOM_COUNT>
43

> <PUBCHEM_ISOTOPIC_ATOM_COUNT>
0

> <PUBCHEM_MMFF94_ENERGY>
147.6072

> <PUBCHEM_MMFF94_PARTIAL_CHARGES>
55
1 -0.56
10 -0.68
11 -0.36
12 -0.53
13 -0.57
14 -0.53
15 -0.36
16 0.28
17 0.28
18 0.28
19 0.56
2 -0.56
20 0.56
21 0.28
22 0.28
23 0.28
24 0.28
25 0.28
26 0.28
28 0.08
29 -0.15
3 -0.56
30 -0.15
31 0.08
32 0.09
33 0.42
34 0.08
35 0.06
36 0.42
37 -0.14
38 -0.15
39 -0.15
4 -0.36
40 0.08
41 -0.15
42 0.08
43 0.28
5 -0.68
59 0.4
6 -0.68
60 0.4
61 0.4
62 0.4
63 0.4
64 0.4
65 0.15
66 0.15
7 -0.68
70 0.15
71 0.15
72 0.45
73 0.15
74 0.45
8 -0.68
9 -0.68

> <PUBCHEM_PHARMACOPHORE_FEATURES>
26
1 1 acceptor
1 10 acceptor
1 10 donor
1 11 acceptor
1 12 donor
1 13 acceptor
1 14 donor
1 15 acceptor
1 2 acceptor
1 3 acceptor
1 4 acceptor
1 5 acceptor
1 5 donor
1 6 acceptor
1 6 donor
1 7 acceptor
1 7 donor
1 8 acceptor
1 8 donor
1 9 acceptor
1 9 donor
6 11 31 32 33 35 36 rings
6 2 16 17 18 20 22 rings
6 28 29 30 31 32 34 rings
6 3 19 21 23 24 25 rings
6 37 38 39 40 41 42 rings

> <PUBCHEM_SHAPE_FINGERPRINT>
10985338 15 16844706730022920242
11991303 11 17749671912419523083
12107183 9 9222937162863194005
12120059 20 18336543945401917027
12144603 126 18272097063856884977
1361 2 18408327692108857800
13617811 41 18335980955987187337
13692114 37 18411414034365107162
13782708 43 17060330847234017965
14068700 686 18114178580197485437
14767858 380 18409733953973077532
15082195 135 18262515884260349440
15320295 44 18196095434576388614
15361156 5 18336550418223677593
15538507 32 18341331188156925089
15705408 1 17758697559323731078
19319366 153 18336538356874478487
21033648 29 12973892545891851884
21360443 126 18188209926145099018
22149856 69 18200597995343900505
22899556 105 18200606783021385774
23516275 137 17202229406920267631
23522609 53 17987542350091304313
23559900 14 17836074577336025216
24771750 20 17827367888569841565
3103668 31 17903929094682373530
3504750 166 16388448626396359866
437795 51 18409728504181863631
44880168 125 16343412921857424245
4573279 73 18340206293246055919
5912855 24 18127135165290421297
6058803 2 17906176144182186200
86090 222 18200299030828324584

> <PUBCHEM_SHAPE_MULTIPOLES>
796.88
22.16
6.06
1.8
30.92
4.01
-1.14
1.44
-13.22
-4.92
2.03
-0.57
-0.31
-1.53

> <PUBCHEM_SHAPE_SELFOVERLAP>
1720.962

> <PUBCHEM_SHAPE_VOLUME>
431.6

> <RelativeEnergy>
0

> <StereoisomerIndex>
1

> <TautomerIndex>
2

> <LibDock Warning>
no hit found

> <ErrorText>
LibDock failed

$$$$
442971
  SciTegic09112317153D

134142  0  0  0  0            999 V2000
    3.0470   -0.8830    1.6440 O   0  0  0  1  0  0
    4.7880   -2.2430    0.7900 O   0  0  0  1  0  0
    4.4200   -0.6110   -1.6980 O   0  0  0  1  0  0
    5.1420    1.3260    1.2680 O   0  0  0  1  0  0
    7.1720   -1.0470   -0.5600 O   0  0  0  1  0  0
    3.3610   -1.7780   -3.3770 O   0  0  0  1  0  0
    4.9800   -2.3850    3.4920 O   0  0  0  1  0  0
    9.3280   -0.2750   -0.0190 O   0  0  0  1  0  0
    3.0480    1.7800   -2.3840 O   0  0  0  1  0  0
    0.5660    1.0570   -3.3110 O   0  0  0  1  0  0
   10.2870   -2.8030   -1.1890 O   0  0  0  1  0  0
    0.7010   -0.8530   -5.7440 O   0  0  0  1  0  0
    9.9460   -1.8700   -3.8350 O   0  0  0  1  0  0
   10.1830    0.9840   -3.3440 O   0  0  0  1  0  0
   -8.2310    1.1640   -0.2190 N   0  3  1  1  0  0
   -5.5560    0.2850    1.9100 C   0  0  2  1  0  0
   -7.0120   -0.0630    1.5500 C   0  0  2  1  0  0
   -4.8470   -0.2000    0.6370 C   0  0  2  1  0  0
   -7.1090    0.1490    0.0360 C   0  0  2  1  0  0
   -3.3510    0.1450    0.6560 C   0  0  1  1  0  0
   -5.6880    0.4530   -0.4570 C   0  0  0  1  0  0
   -8.1500    0.7590    2.1690 C   0  0  1  1  0  0
   -2.6900   -0.5130    1.8870 C   0  0  2  1  0  0
   -4.9800   -0.5140    3.0830 C   0  0  0  1  0  0
   -9.1370    0.9600    1.0120 C   0  0  1  1  0  0
   -3.4700   -0.2350    3.1990 C   0  0  0  1  0  0
   -1.1850   -0.1210    1.9680 C   0  0  2  1  0  0
   -5.3640    1.7940    2.1110 C   0  0  0  1  0  0
   -2.6810   -0.3660   -0.6270 C   0  0  0  1  0  0
  -10.1020    2.1300    1.2900 C   0  0  0  1  0  0
   -7.8520    2.6470   -0.3350 C   0  0  0  1  0  0
   -8.7960    0.0340    3.3460 C   0  0  0  1  0  0
   -0.4930   -0.1970    0.6040 C   0  0  0  1  0  0
   -9.1120    3.5020   -0.6100 C   0  0  2  1  0  0
   -0.4620   -1.0440    2.9840 C   0  0  0  1  0  0
  -10.3960    2.8840   -0.0120 C   0  0  0  1  0  0
   -1.1740   -0.3070   -0.5600 C   0  0  0  1  0  0
   -1.0460    1.3410    2.4180 C   0  0  0  1  0  0
    1.0230   -0.1340    0.5800 C   0  0  0  1  0  0
    1.0630   -0.8660    3.0050 C   0  0  0  1  0  0
    1.6500   -1.0900    1.6050 C   0  0  2  1  0  0
   -9.2940    3.7760   -2.1070 C   0  0  0  1  0  0
    3.7130   -1.3490    0.4880 C   0  0  2  1  0  0
    4.1850   -0.1530   -0.3790 C   0  0  1  1  0  0
    5.4760    0.5180    0.1520 C   0  0  2  1  0  0
    5.9430   -1.6850    1.4230 C   0  0  1  1  0  0
    6.5340   -0.5190    0.5910 C   0  0  1  1  0  0
    5.6160   -1.2900    2.8690 C   0  0  0  1  0  0
    3.2430   -0.6670   -2.4850 C   0  0  2  1  0  0
    3.0090    0.6590   -3.2550 C   0  0  1  1  0  0
    8.5200   -1.4110   -0.3340 C   0  0  2  1  0  0
    1.6810    0.5940   -4.0620 C   0  0  1  1  0  0
    2.6910   -1.6780   -4.6340 C   0  0  2  1  0  0
    9.0760   -2.1640   -1.5680 C   0  0  1  1  0  0
    1.3820   -0.8650   -4.5010 C   0  0  2  1  0  0
    9.3090   -1.2020   -2.7570 C   0  0  1  1  0  0
    9.4870    0.6900   -1.0570 C   0  0  2  1  0  0
   10.1270    0.0280   -2.2990 C   0  0  2  1  0  0
    2.4840   -3.1110   -5.1310 C   0  0  0  1  0  0
   10.3460    1.8190   -0.4780 C   0  0  0  1  0  0
   -7.1810   -1.1150    1.7430 H   0  0  0  1  0  0
   -4.9450   -1.2770    0.5490 H   0  0  0  1  0  0
   -7.4150   -0.7940   -0.3950 H   0  0  0  1  0  0
   -3.2240    1.2270    0.7130 H   0  0  0  1  0  0
   -5.5000    0.0320   -1.4350 H   0  0  0  1  0  0
   -5.4820    1.5120   -0.5070 H   0  0  0  1  0  0
   -7.7930    1.7210    2.5080 H   0  0  0  1  0  0
   -2.7410   -1.5930    1.7250 H   0  0  0  1  0  0
   -5.4880   -0.2420    4.0090 H   0  0  0  1  0  0
   -5.1490   -1.5830    2.9380 H   0  0  0  1  0  0
   -9.7080    0.0550    0.8530 H   0  0  0  1  0  0
   -3.3270    0.7990    3.5110 H   0  0  0  1  0  0
   -3.0690   -0.8480    4.0060 H   0  0  0  1  0  0
   -5.7280    2.3680    1.2600 H   0  0  0  1  0  0
   -4.3090    2.0340    2.2480 H   0  0  0  1  0  0
   -5.9000    2.1370    2.9950 H   0  0  0  1  0  0
   -3.0220    0.2130   -1.4860 H   0  0  0  1  0  0
   -2.9710   -1.4020   -0.8140 H   0  0  0  1  0  0
   -9.6720    2.8340    2.0010 H   0  0  0  1  0  0
  -11.0230    1.7600    1.7410 H   0  0  0  1  0  0
   -7.3780    2.9800    0.5890 H   0  0  0  1  0  0
   -7.1180    2.8040   -1.1250 H   0  0  0  1  0  0
   -9.6240    0.6060    3.7700 H   0  0  0  1  0  0
   -8.0680   -0.1370    4.1380 H   0  0  0  1  0  0
   -9.1840   -0.9350    3.0350 H   0  0  0  1  0  0
   -8.9490    4.4650   -0.1270 H   0  0  0  1  0  0
   -0.8470   -0.8700    3.9890 H   0  0  0  1  0  0
   -0.6840   -2.0860    2.7530 H   0  0  0  1  0  0
  -10.8460    2.1900   -0.7220 H   0  0  0  1  0  0
  -11.1340    3.6670    0.1610 H   0  0  0  1  0  0
   -0.6260   -0.3530   -1.4900 H   0  0  0  1  0  0
   -0.0150    1.6890    2.3610 H   0  0  0  1  0  0
   -1.3790    1.4590    3.4510 H   0  0  0  1  0  0
   -1.6540    1.9960    1.7960 H   0  0  0  1  0  0
    1.3210    0.8950    0.7920 H   0  0  0  1  0  0
    1.4010   -0.3660   -0.4170 H   0  0  0  1  0  0
    1.4990   -1.5700    3.7150 H   0  0  0  1  0  0
    1.3080    0.1350    3.3670 H   0  0  0  1  0  0
    1.4810   -2.1220    1.2970 H   0  0  0  1  0  0
  -10.1680    4.4020   -2.2800 H   0  0  0  1  0  0
   -8.4140    4.2730   -2.5160 H   0  0  0  1  0  0
   -9.4360    2.8440   -2.6540 H   0  0  0  1  0  0
    2.9630   -1.9310   -0.0500 H   0  0  0  1  0  0
    3.3860    0.5840   -0.4790 H   0  0  0  1  0  0
    5.8880    1.2100   -0.5850 H   0  0  0  1  0  0
    6.6720   -2.4940    1.4830 H   0  0  0  1  0  0
    7.3310   -0.0340    1.1570 H   0  0  0  1  0  0
    4.9300   -0.4430    2.8910 H   0  0  0  1  0  0
    6.5280   -1.0690    3.4230 H   0  0  0  1  0  0
    2.4010   -0.8660   -1.8210 H   0  0  0  1  0  0
    3.8320    0.8020   -3.9570 H   0  0  0  1  0  0
    8.5150   -2.0570    0.5440 H   0  0  0  1  0  0
    1.7750    1.2580   -4.9230 H   0  0  0  1  0  0
    3.3680   -1.1560   -5.3140 H   0  0  0  1  0  0
    8.3910   -2.9640   -1.8630 H   0  0  0  1  0  0
    0.7320   -1.3710   -3.7850 H   0  0  0  1  0  0
    8.3380   -0.8730   -3.1310 H   0  0  0  1  0  0
    8.5010    1.0860   -1.3020 H   0  0  0  1  0  0
   11.1540   -0.2650   -2.0750 H   0  0  0  1  0  0
    3.4150   -3.6790   -5.1320 H   0  0  0  1  0  0
    2.0920   -3.1150   -6.1470 H   0  0  0  1  0  0
    1.7730   -3.6400   -4.4970 H   0  0  0  1  0  0
    9.9170    2.2280    0.4360 H   0  0  0  1  0  0
   10.4400    2.6360   -1.1950 H   0  0  0  1  0  0
   11.3490    1.4620   -0.2450 H   0  0  0  1  0  0
    5.9280    1.8550    1.4820 H   0  0  0  1  0  0
    4.8370   -2.1420    4.4180 H   0  0  0  1  0  0
    2.9890    2.5750   -2.9360 H   0  0  0  1  0  0
   -0.1720    1.1650   -3.9320 H   0  0  0  1  0  0
   10.0520   -3.5270   -0.5880 H   0  0  0  1  0  0
    0.2570   -1.7100   -5.8320 H   0  0  0  1  0  0
    9.8400   -1.3120   -4.6220 H   0  0  0  1  0  0
   10.9500    1.5510   -3.1720 H   0  0  0  1  0  0
   -8.7570    0.8830   -1.1230 H   0  0  0  1  0  0
  1 41  1  0
  1 43  1  0
  2 43  1  0
  2 46  1  0
  3 44  1  0
  3 49  1  0
  4 45  1  0
  4126  1  0
  5 47  1  0
  5 51  1  0
  6 49  1  0
  6 53  1  0
  7 48  1  0
  7127  1  0
  8 51  1  0
  8 57  1  0
  9 50  1  0
  9128  1  0
 10 52  1  0
 10129  1  0
 11 54  1  0
 11130  1  0
 12 55  1  0
 12131  1  0
 13 56  1  0
 13132  1  0
 14 58  1  0
 14133  1  0
 15 19  1  0
 15 25  1  0
 15 31  1  0
 15134  1  0
 16 17  1  0
 16 18  1  0
 16 24  1  0
 16 28  1  0
 17 19  1  0
 17 22  1  0
 17 61  1  0
 18 20  1  0
 18 21  1  0
 18 62  1  0
 19 21  1  0
 19 63  1  0
 20 23  1  0
 20 29  1  0
 20 64  1  0
 21 65  1  0
 21 66  1  0
 22 25  1  0
 22 32  1  0
 22 67  1  0
 23 26  1  0
 23 27  1  0
 23 68  1  0
 24 26  1  0
 24 69  1  0
 24 70  1  0
 25 30  1  0
 25 71  1  0
 26 72  1  0
 26 73  1  0
 27 33  1  0
 27 35  1  0
 27 38  1  0
 28 74  1  0
 28 75  1  0
 28 76  1  0
 29 37  1  0
 29 77  1  0
 29 78  1  0
 30 36  1  0
 30 79  1  0
 30 80  1  0
 31 34  1  0
 31 81  1  0
 31 82  1  0
 32 83  1  0
 32 84  1  0
 32 85  1  0
 33 37  2  0
 33 39  1  0
 34 36  1  0
 34 42  1  0
 34 86  1  0
 35 40  1  0
 35 87  1  0
 35 88  1  0
 36 89  1  0
 36 90  1  0
 37 91  1  0
 38 92  1  0
 38 93  1  0
 38 94  1  0
 39 41  1  0
 39 95  1  0
 39 96  1  0
 40 41  1  0
 40 97  1  0
 40 98  1  0
 41 99  1  0
 42100  1  0
 42101  1  0
 42102  1  0
 43 44  1  0
 43103  1  0
 44 45  1  0
 44104  1  0
 45 47  1  0
 45105  1  0
 46 47  1  0
 46 48  1  0
 46106  1  0
 47107  1  0
 48108  1  0
 48109  1  0
 49 50  1  0
 49110  1  0
 50 52  1  0
 50111  1  0
 51 54  1  0
 51112  1  0
 52 55  1  0
 52113  1  0
 53 55  1  0
 53 59  1  0
 53114  1  0
 54 56  1  0
 54115  1  0
 55116  1  0
 56 58  1  0
 56117  1  0
 57 58  1  0
 57 60  1  0
 57118  1  0
 58119  1  0
 59120  1  0
 59121  1  0
 59122  1  0
 60123  1  0
 60124  1  0
 60125  1  0
M  CHG  1  15   1
M  END
> <Name>
442971

> <AbsoluteEnergy>
67.3478

> <ConfNumber>
1

> <Ionization pH>
7.54_P

> <IonizationIndex>
1

> <NumberOfIonizations>
2

> <NumberOfStereoisomers>
2

> <NumberOfTautomers>
1

> <OBJECTID>
9223372440585043981

> <PUBCHEM_ATOM_DEF_STEREO_COUNT>
26

> <PUBCHEM_ATOM_UDEF_STEREO_COUNT>
0

> <PUBCHEM_BONDANNOTATIONS>
41  1  5
43  1  5
52  10  5
54  11  6
55  12  6
56  13  6
58  14  5
16  28  5
17  61  6
18  62  6
19  63  6
20  64  5
22  32  6
23  68  6
25  71  6
27  38  5
44  3  6
49  3  6
34  42  6
45  4  5
46  48  5
47  5  6
51  5  5
53  59  5
57  60  6
50  9  5

> <PUBCHEM_BOND_DEF_STEREO_COUNT>
0

> <PUBCHEM_BOND_UDEF_STEREO_COUNT>
0

> <PUBCHEM_CACTVS_COMPLEXITY>
1570

> <PUBCHEM_CACTVS_HBOND_ACCEPTOR>
15

> <PUBCHEM_CACTVS_HBOND_DONOR>
8

> <PUBCHEM_CACTVS_ROTATABLE_BOND>
7

> <PUBCHEM_CACTVS_SUBSKEYS>
AAADcfB+PAAAAAAAAAAAAAAAAAAAAeIAAAA8aJEiAAAWAHiAAAAAHgAACAAADzzxgAcCCAMABgCAAiBCAAAAAAAgAAAACAAIAAgREAIAgQAmQAAFwACPAAPQ4PwPgAAAAAAAAADAAAQAACAAASAACQAAAA==

> <PUBCHEM_CACTVS_TAUTO_COUNT>
1

> <PUBCHEM_CACTVS_TPSA>
221

> <PUBCHEM_COMPONENT_COUNT>
1

> <PUBCHEM_COMPOUND_CANONICALIZED>
1

> <PUBCHEM_COMPOUND_CID>
442971

> <PUBCHEM_COORDINATE_TYPE>
1
5
255

> <PUBCHEM_EXACT_MASS>
851.503106

> <PUBCHEM_HEAVY_ATOM_COUNT>
60

> <PUBCHEM_ISOTOPIC_ATOM_COUNT>
0

> <PUBCHEM_IUPAC_CAS_NAME>
(2S,3R,4R,5R,6S)-2-[[(2R,3S,4S,5R,6R)-4-hydroxy-2-(hydroxymethyl)-6-[[(1S,2S,7S,10R,11S,14S,15R,16S,17R,20S,23S)-10,14,16,20-tetramethyl-22-azahexacyclo[12.10.0.02,11.05,10.015,23.017,22]tetracos-4-en
-7-yl]oxy]-5-[[(2S,3R,4R,5R,6S)-3,4,5-trihydroxy-6-methyl-2-oxanyl]oxy]-3-oxanyl]oxy]-6-methyloxane-3,4,5-triol

> <PUBCHEM_IUPAC_INCHI>
InChI=1S/C45H73NO14/c1-19-7-10-28-20(2)31-29(46(28)17-19)16-27-25-9-8-23-15-24(11-13-44(23,5)26(25)12-14-45(27,31)6)57-43-40(60-42-37(53)35(51)33(49)22(4)56-42)38(54)39(30(18-47)58-43)59-41-36(52)34(5
0)32(48)21(3)55-41/h8,19-22,24-43,47-54H,7,9-18H2,1-6H3/t19-,20+,21-,22-,24-,25+,26-,27-,28+,29-,30+,31-,32-,33-,34+,35+,36+,37+,38-,39+,40+,41-,42-,43+,44-,45-/m0/s1

> <PUBCHEM_IUPAC_INCHIKEY>
TYNQWWGVEGFKRU-AJDPQWBVSA-N

> <PUBCHEM_IUPAC_NAME>
(2S,3R,4R,5R,6S)-2-[(2R,3S,4S,5R,6R)-4-hydroxy-2-(hydroxymethyl)-6-[[(1S,2S,7S,10R,11S,14S,15R,16S,17R,20S,23S)-10,14,16,20-tetramethyl-22-azahexacyclo[12.10.0.02,11.05,10.015,23.017,22]tetracos-4-en-
7-yl]oxy]-5-[(2S,3R,4R,5R,6S)-3,4,5-trihydroxy-6-methyloxan-2-yl]oxyoxan-3-yl]oxy-6-methyloxane-3,4,5-triol

> <PUBCHEM_IUPAC_NAME_MARKUP>
(2<I>S</I>,3<I>R</I>,4<I>R</I>,5<I>R</I>,6<I>S</I>)-2-[(2<I>R</I>,3<I>S</I>,4<I>S</I>,5<I>R</I>,6<I>R</I>)-4-hydroxy-2-(hydroxymethyl)-6-[[(1<I>S</I>,2<I>S</I>,7<I>S</I>,10<I>R</I>,11<I>S</I>,14<I>S</
I>,15<I>R</I>,16<I>S</I>,17<I>R</I>,20<I>S</I>,23<I>S</I>)-10,14,16,20-tetramethyl-22-azahexacyclo[12.10.0.0<SUP>2,11</SUP>.0<SUP>5,10</SUP>.0<SUP>15,23</SUP>.0<SUP>17,22</SUP>]tetracos-4-en-7-yl]oxy]
-5-[(2<I>S</I>,3<I>R</I>,4<I>R</I>,5<I>R</I>,6<I>S</I>)-3,4,5-trihydroxy-6-methyloxan-2-yl]oxyoxan-3-yl]oxy-6-methyloxane-3,4,5-triol

> <PUBCHEM_IUPAC_OPENEYE_NAME>
(2S,3R,4R,5R,6S)-2-[(2R,3S,4S,5R,6R)-4-hydroxy-2-(hydroxymethyl)-6-[[(1S,2S,7S,10R,11S,14S,15R,16S,17R,20S,23S)-10,14,16,20-tetramethyl-22-azahexacyclo[12.10.0.02,11.05,10.015,23.017,22]tetracos-4-en-
7-yl]oxy]-5-[(2S,3R,4R,5R,6S)-3,4,5-trihydroxy-6-methyl-tetrahydropyran-2-yl]oxy-tetrahydropyran-3-yl]oxy-6-methyl-tetrahydropyran-3,4,5-triol

> <PUBCHEM_IUPAC_SYSTEMATIC_NAME>
(2S,3R,4R,5R,6S)-2-[(2R,3S,4S,5R,6R)-2-(hydroxymethyl)-5-[(2S,3R,4R,5R,6S)-6-methyl-3,4,5-tris(oxidanyl)oxan-2-yl]oxy-4-oxidanyl-6-[[(1S,2S,7S,10R,11S,14S,15R,16S,17R,20S,23S)-10,14,16,20-tetramethyl-
22-azahexacyclo[12.10.0.02,11.05,10.015,23.017,22]tetracos-4-en-7-yl]oxy]oxan-3-yl]oxy-6-methyl-oxane-3,4,5-triol

> <PUBCHEM_IUPAC_TRADITIONAL_NAME>
(2S,3R,4R,5R,6S)-2-[(2R,3S,4S,5R,6R)-4-hydroxy-2-methylol-6-[[(1S,2S,7S,10R,11S,14S,15R,16S,17R,20S,23S)-10,14,16,20-tetramethyl-22-azahexacyclo[12.10.0.02,11.05,10.015,23.017,22]tetracos-4-en-7-yl]ox
y]-5-[(2S,3R,4R,5R,6S)-3,4,5-trihydroxy-6-methyl-tetrahydropyran-2-yl]oxy-tetrahydropyran-3-yl]oxy-6-methyl-tetrahydropyran-3,4,5-triol

> <PUBCHEM_MOLECULAR_FORMULA>
C45H73NO14

> <PUBCHEM_MOLECULAR_WEIGHT>
852.1

> <PUBCHEM_MONOISOTOPIC_WEIGHT>
851.503106

> <PUBCHEM_OPENEYE_CAN_SMILES>
CC1CCC2C(C3C(N2C1)CC4C3(CCC5C4CC=C6C5(CCC(C6)OC7C(C(C(C(O7)CO)OC8C(C(C(C(O8)C)O)O)O)O)OC9C(C(C(C(O9)C)O)O)O)C)C)C

> <PUBCHEM_OPENEYE_ISO_SMILES>
C[C@H]1CC[C@@H]2[C@H]([C@H]3[C@@H](N2C1)C[C@@H]4[C@@]3(CC[C@H]5[C@H]4CC=C6[C@@]5(CC[C@@H](C6)O[C@H]7[C@@H]([C@H]([C@@H]([C@H](O7)CO)O[C@H]8[C@@H]([C@@H]([C@H]([C@@H](O8)C)O)O)O)O)O[C@H]9[C@@H]([C@@H](
[C@H]([C@@H](O9)C)O)O)O)C)C)C

> <PUBCHEM_TOTAL_CHARGE>
0

> <PUBCHEM_XLOGP3_AA>
1.8

> <RelativeEnergy>
0

> <StereoisomerIndex>
1

> <TautomerIndex>
1

> <LibDock Warning>
no hit found

> <ErrorText>
LibDock failed

$$$$
5281319
  SciTegic09112317153D

 83 86  0  0  0  0            999 V2000
    0.3650    3.2010    0.0140 O   0  0  0  1  0  0
    2.0990   -0.9130    1.1320 O   0  0  0  1  0  0
   -1.5670   -3.5010    0.3540 O   0  0  0  1  0  0
    2.5290    0.3900   -1.5230 O   0  0  0  1  0  0
   -6.5110   -3.4720    1.8550 O   0  5  0  1  0  0
   -7.9700   -1.2450    1.6550 O   0  0  0  1  0  0
    7.3320   -0.5460    0.3810 O   0  0  0  1  0  0
    7.6400   -0.5500   -1.8390 O   0  0  0  1  0  0
   -1.4680    0.4810   -0.6110 C   0  0  2  1  0  0
   -0.2430   -0.2960   -0.0800 C   0  0  1  1  0  0
   -2.3640   -0.5000   -1.4070 C   0  0  1  1  0  0
    0.6110    0.8380    0.5060 C   0  0  2  1  0  0
   -2.8620   -1.6980   -0.5490 C   0  0  1  1  0  0
   -0.7640    1.5850   -1.4090 C   0  0  0  1  0  0
    0.4900    1.9260   -0.5830 C   0  0  1  1  0  0
   -0.7350   -1.3540    0.9110 C   0  0  0  1  0  0
   -1.7120   -2.3050    0.2500 C   0  0  0  1  0  0
   -3.9860   -1.2700    0.4450 C   0  0  1  1  0  0
   -2.2400    1.2250    0.4890 C   0  0  0  1  0  0
   -3.5430    0.1860   -2.1170 C   0  0  0  1  0  0
    0.5700   -0.9690   -1.2000 C   0  0  0  1  0  0
    2.0610    0.4560    0.7980 C   0  0  1  1  0  0
   -3.4030   -2.7610   -1.5250 C   0  0  0  1  0  0
   -4.9690   -0.2260   -0.0800 C   0  0  0  1  0  0
   -4.7470    0.4330   -1.2410 C   0  0  0  1  0  0
   -6.2000    0.0670    0.7750 C   0  0  0  1  0  0
   -4.7120   -2.4760    1.0150 C   0  0  0  1  0  0
    2.5670    1.2570    1.9980 C   0  0  0  1  0  0
    2.9490    0.6080   -0.4090 C   0  0  0  1  0  0
   -6.8110   -1.2150    1.3060 C   0  0  0  1  0  0
   -6.0010   -2.4440    1.4060 C   0  0  0  1  0  0
   -5.7530    0.9120    1.9680 C   0  0  0  1  0  0
   -7.2920    0.8350    0.0120 C   0  0  0  1  0  0
    4.3410    1.0280   -0.2100 C   0  0  0  1  0  0
    5.2270    0.2030    0.3700 C   0  0  0  1  0  0
    6.6430    0.6840    0.5500 C   0  0  0  1  0  0
    6.9010    1.2220    1.9580 C   0  0  0  1  0  0
    7.0720    1.6620   -0.5440 C   0  0  0  1  0  0
    7.1770   -1.0500   -0.8410 C   0  0  0  1  0  0
    6.3670   -2.3170   -0.9140 C   0  0  0  1  0  0
   -1.7430   -0.9040   -2.2080 H   0  0  0  1  0  0
    0.1640    1.1670    1.4350 H   0  0  0  1  0  0
   -1.4050    2.4360   -1.6060 H   0  0  0  1  0  0
   -0.4660    1.2060   -2.3760 H   0  0  0  1  0  0
    1.3600    1.9490   -1.2240 H   0  0  0  1  0  0
   -1.2170   -0.8870    1.7710 H   0  0  0  1  0  0
    0.1110   -1.9140    1.3090 H   0  0  0  1  0  0
   -3.5070   -0.8000    1.3030 H   0  0  0  1  0  0
   -3.2490    1.4860    0.1710 H   0  0  0  1  0  0
   -1.7290    2.1490    0.7610 H   0  0  0  1  0  0
   -2.3220    0.6120    1.3860 H   0  0  0  1  0  0
   -3.2240    1.1260   -2.5650 H   0  0  0  1  0  0
   -3.8670   -0.4390   -2.9490 H   0  0  0  1  0  0
    0.7340   -0.2960   -2.0420 H   0  0  0  1  0  0
    0.0520   -1.8520   -1.5760 H   0  0  0  1  0  0
    1.5450   -1.2860   -0.8320 H   0  0  0  1  0  0
   -2.6860   -2.9950   -2.3110 H   0  0  0  1  0  0
   -4.3210   -2.4170   -2.0010 H   0  0  0  1  0  0
   -3.6310   -3.6880   -0.9950 H   0  0  0  1  0  0
   -5.4440    1.1830   -1.5840 H   0  0  0  1  0  0
   -4.1710   -3.4070    1.1130 H   0  0  0  1  0  0
    3.5630    0.9380    2.3070 H   0  0  0  1  0  0
    1.8980    1.1370    2.8500 H   0  0  0  1  0  0
    2.6170    2.3180    1.7590 H   0  0  0  1  0  0
   -5.0190    0.3880    2.5850 H   0  0  0  1  0  0
   -6.6020    1.1640    2.6040 H   0  0  0  1  0  0
   -5.2980    1.8440    1.6330 H   0  0  0  1  0  0
   -7.5910    0.3170   -0.9010 H   0  0  0  1  0  0
   -6.9410    1.8270   -0.2680 H   0  0  0  1  0  0
   -8.1810    0.9560    0.6300 H   0  0  0  1  0  0
    4.5780    2.0220   -0.5590 H   0  0  0  1  0  0
    4.8380   -0.7600    0.6640 H   0  0  0  1  0  0
    6.6270    0.4980    2.7250 H   0  0  0  1  0  0
    6.3240    2.1300    2.1340 H   0  0  0  1  0  0
    7.9550    1.4660    2.0910 H   0  0  0  1  0  0
    8.1480    1.6380   -0.7110 H   0  0  0  1  0  0
    6.7970    2.6830   -0.2770 H   0  0  0  1  0  0
    6.5810    1.4230   -1.4890 H   0  0  0  1  0  0
    6.7890   -2.9840   -1.6640 H   0  0  0  1  0  0
    6.3280   -2.7890    0.0680 H   0  0  0  1  0  0
    5.3430   -2.0850   -1.2130 H   0  0  0  1  0  0
    1.2230    3.4160    0.4140 H   0  0  0  1  0  0
    2.9640   -1.0860    1.5330 H   0  0  0  1  0  0
  1 15  1  0
  1 82  1  0
  2 22  1  0
  2 83  1  0
  3 17  2  0
  4 29  2  0
  5 31  1  0
  6 30  2  0
  7 36  1  0
  7 39  1  0
  8 39  2  0
  9 10  1  0
  9 11  1  0
  9 14  1  0
  9 19  1  0
 10 12  1  0
 10 16  1  0
 10 21  1  0
 11 13  1  0
 11 20  1  0
 11 41  1  0
 12 15  1  0
 12 22  1  0
 12 42  1  0
 13 17  1  0
 13 18  1  0
 13 23  1  0
 14 15  1  0
 14 43  1  0
 14 44  1  0
 15 45  1  0
 16 17  1  0
 16 46  1  0
 16 47  1  0
 18 24  1  0
 18 27  1  0
 18 48  1  0
 19 49  1  0
 19 50  1  0
 19 51  1  0
 20 25  1  0
 20 52  1  0
 20 53  1  0
 21 54  1  0
 21 55  1  0
 21 56  1  0
 22 28  1  0
 22 29  1  0
 23 57  1  0
 23 58  1  0
 23 59  1  0
 24 25  2  0
 24 26  1  0
 25 60  1  0
 26 30  1  0
 26 32  1  0
 26 33  1  0
 27 31  2  0
 27 61  1  0
 28 62  1  0
 28 63  1  0
 28 64  1  0
 29 34  1  0
 30 31  1  0
 32 65  1  0
 32 66  1  0
 32 67  1  0
 33 68  1  0
 33 69  1  0
 33 70  1  0
 34 35  2  0
 34 71  1  0
 35 36  1  0
 35 72  1  0
 36 37  1  0
 36 38  1  0
 37 73  1  0
 37 74  1  0
 37 75  1  0
 38 76  1  0
 38 77  1  0
 38 78  1  0
 39 40  1  0
 40 79  1  0
 40 80  1  0
 40 81  1  0
M  CHG  1   5  -1
M  END
> <Name>
5281319

> <AbsoluteEnergy>
96.7398

> <ConfNumber>
1

> <Ionization pH>
7.5

> <IonizationIndex>
1

> <NumberOfIonizations>
1

> <NumberOfStereoisomers>
1

> <NumberOfTautomers>
1

> <OBJECTID>
9223372547959226381

> <PUBCHEM_ATOM_DEF_STEREO_COUNT>
8

> <PUBCHEM_ATOM_UDEF_STEREO_COUNT>
0

> <PUBCHEM_BOND_DEF_STEREO_COUNT>
1

> <PUBCHEM_BOND_UDEF_STEREO_COUNT>
0

> <PUBCHEM_CACTVS_TAUTO_COUNT>
10

> <PUBCHEM_COMPONENT_COUNT>
1

> <PUBCHEM_COMPOUND_CID>
5281319

> <PUBCHEM_CONFORMER_DIVERSEORDER>
1
18
21
20
13
4
17
22
19
12
24
5
6
23
8
7
9
16
25
14
3
11
10
15
2

> <PUBCHEM_CONFORMER_ID>
50962700000001

> <PUBCHEM_CONFORMER_RMSD>
1

> <PUBCHEM_COORDINATE_TYPE>
2
5
10

> <PUBCHEM_EFFECTIVE_ROTOR_COUNT>
7.2

> <PUBCHEM_FEATURE_SELFOVERLAP>
76.25

> <PUBCHEM_HEAVY_ATOM_COUNT>
40

> <PUBCHEM_ISOTOPIC_ATOM_COUNT>
0

> <PUBCHEM_MMFF94_ENERGY>
161.9586

> <PUBCHEM_MMFF94_PARTIAL_CHARGES>
34
1 -0.68
13 0.06
15 0.28
16 0.06
17 0.45
18 0.28
2 -0.68
20 0.14
22 0.34
24 -0.28
25 -0.29
26 0.2
27 -0.29
29 0.49
3 -0.57
30 0.49
31 0.09
34 -0.14
35 -0.29
36 0.42
39 0.66
4 -0.57
40 0.06
5 -0.53
6 -0.57
60 0.15
61 0.15
62 0.4
66 0.4
7 -0.43
73 0.15
74 0.45
75 0.15
8 -0.57

> <PUBCHEM_PHARMACOPHORE_FEATURES>
15
1 1 acceptor
1 1 donor
1 2 acceptor
1 2 donor
1 3 acceptor
1 4 acceptor
1 5 donor
1 6 acceptor
1 8 acceptor
3 26 32 33 hydrophobe
3 36 37 38 hydrophobe
5 9 10 12 14 15 rings
6 11 13 18 20 24 25 rings
6 18 24 26 27 30 31 rings
6 9 10 11 13 16 17 rings

> <PUBCHEM_SHAPE_FINGERPRINT>
10 15 12967128341129204483
10319926 262 16056610811384402580
11377469 6 18130795517109300720
117089 54 18410863165516444342
12422481 6 15769788939349608889
131258 43 18188500171666964444
1361 4 18268992162271801222
13690498 29 17894633630154248757
13782708 43 18412542128171504134
13811026 1 18410565193363952226
13911987 19 14129058119175663105
13947930 73 18272374229942791838
14068700 675 18408885105949245968
14118638 360 18342458183766368216
15001296 14 18263638631819621730
15064981 194 14779544613549401223
15064986 266 18334862719145408997
15082195 135 15430032158950377808
15183329 4 17458624480604036658
15361156 5 17531539693231855028
16989378 47 18334295370744679922
18393751 57 11743836989176558133
19438510 23 8862942758331207086
19841028 212 18270676588690543527
19958102 18 18260264165845197842
21033648 29 12679194803611130515
21033650 10 16370998565129481421
21987483 16 16269653455882666951
22122407 14 9655279433415607862
22223350 30 17771897509235916263
22393880 68 17168971443980612249
23559900 14 18189885591215471169
23569914 152 17536839258095401895
23569914 2 12030105651415973419
24983565 74 17914324934474425975
25269216 80 17603877697157686543
2748736 6 9583227324129999178
2838139 119 7997428108467529459
32027 91 18269831077127846043
3383291 50 18060133245807676126
3862424 121 17533522233003669179
392239 28 16056873654386606525
4258327 124 10881398743204236723
44880168 125 18266452282592240207
474113 269 17489296495975153511
5104073 3 15267338556805854240
513202 73 18131068238720882061
563151 74 11023831656440018644
57527293 21 17203054105513618729
57527295 17 17749949943449569208
6608658 132 14634859808623027711
86090 222 18272071800258591442
9896288 288 17058667152806666688

> <PUBCHEM_SHAPE_MULTIPOLES>
776.23
19.58
3.63
2.47
19.36
0.68
0.12
21.5
6.77
0.7
-0.09
-0.73
0.01
0.78

> <PUBCHEM_SHAPE_SELFOVERLAP>
1660.896

> <PUBCHEM_SHAPE_VOLUME>
425.1

> <RelativeEnergy>
0

> <StereoisomerIndex>
1

> <TautomerIndex>
1

> <LibDock Warning>
no hit found

> <ErrorText>
LibDock failed

$$$$
5282102
  SciTegic09112317153D

 52 55  0  0  0  0            999 V2000
    0.9930   -1.2010    0.1040 O   0  0  0  1  0  0
    0.9880    1.1130    0.0540 O   0  0  0  1  0  0
    4.2930   -1.6100   -2.1410 O   0  0  0  1  0  0
    0.8980   -2.5840   -2.5010 O   0  0  0  1  0  0
    2.8880    1.1400   -2.0100 O   0  0  0  1  0  0
    2.4870   -2.8940    1.9690 O   0  0  0  1  0  0
   -2.6480    1.3440    0.3510 O   0  0  0  1  0  0
    0.7880    0.6380    2.6140 O   0  0  0  1  0  0
   -0.9030    0.3760    4.7270 O   0  0  0  1  0  0
   -5.5940    0.8710    4.0770 O   0  0  0  1  0  0
   -1.0000    2.3640   -5.5060 O   0  0  0  1  0  0
    2.9180   -1.2760   -2.1830 C   0  0  1  1  0  0
    2.0770   -2.4980   -1.7220 C   0  0  1  1  0  0
    2.6750   -0.0470   -1.2710 C   0  0  2  1  0  0
    1.6890   -2.4070   -0.2240 C   0  0  1  1  0  0
    1.2360   -0.0570   -0.7150 C   0  0  1  1  0  0
    2.9160   -2.4840    0.6900 C   0  0  0  1  0  0
   -0.2210    1.1020    0.6180 C   0  0  0  1  0  0
   -1.4270    1.3540   -0.2090 C   0  0  0  1  0  0
   -0.3440    0.8580    1.9460 C   0  0  0  1  0  0
   -1.7240    0.8600    2.5200 C   0  0  0  1  0  0
   -2.8330    1.1090    1.6670 C   0  0  0  1  0  0
   -1.3160    1.5990   -1.5270 C   0  0  0  1  0  0
   -1.9340    0.6130    3.9040 C   0  0  0  1  0  0
   -4.1440    1.1130    2.1990 C   0  0  0  1  0  0
   -2.3330    1.0950   -2.4750 C   0  0  0  1  0  0
   -0.1740    2.3760   -2.0580 C   0  0  0  1  0  0
   -3.2480    0.6190    4.4260 C   0  0  0  1  0  0
   -4.3520    0.8680    3.5760 C   0  0  0  1  0  0
   -2.2270    1.3450   -3.7950 C   0  0  0  1  0  0
   -0.0690    2.6270   -3.3790 C   0  0  0  1  0  0
   -1.0910    2.1310   -4.3230 C   0  0  0  1  0  0
    2.7000   -1.0470   -3.2300 H   0  0  0  1  0  0
    2.6060   -3.4360   -1.9080 H   0  0  0  1  0  0
    3.3730   -0.0240   -0.4310 H   0  0  0  1  0  0
    1.0310   -3.2320    0.0470 H   0  0  0  1  0  0
    0.5150   -0.0760   -1.5340 H   0  0  0  1  0  0
    3.6280   -3.2190    0.3190 H   0  0  0  1  0  0
    3.3840   -1.5040    0.7890 H   0  0  0  1  0  0
   -4.9890    1.3020    1.5530 H   0  0  0  1  0  0
   -3.1740    0.5180   -2.1140 H   0  0  0  1  0  0
    0.5870    2.7480   -1.3870 H   0  0  0  1  0  0
   -3.4110    0.4340    5.4770 H   0  0  0  1  0  0
   -2.9790    0.9700   -4.4740 H   0  0  0  1  0  0
    0.7710    3.1970   -3.7490 H   0  0  0  1  0  0
    4.7740   -0.9010   -2.5940 H   0  0  0  1  0  0
    0.4850   -3.4400   -2.3010 H   0  0  0  1  0  0
    3.0560    1.8510   -1.3710 H   0  0  0  1  0  0
    3.2740   -2.9370    2.5350 H   0  0  0  1  0  0
   -0.0130    0.6490    4.4610 H   0  0  0  1  0  0
   -5.7250    0.7030    5.0190 H   0  0  0  1  0  0
    1.6340    0.7210    2.1540 H   0  0  0  1  0  0
  1 15  1  0
  1 16  1  0
  2 16  1  0
  2 18  1  0
  3 12  1  0
  3 46  1  0
  4 13  1  0
  4 47  1  0
  5 14  1  0
  5 48  1  0
  6 17  1  0
  6 49  1  0
  7 19  1  0
  7 22  1  0
  8 20  1  0
  8 52  1  0
  9 24  1  0
  9 50  1  0
 10 29  1  0
 10 51  1  0
 11 32  2  0
 12 13  1  0
 12 14  1  0
 12 33  1  0
 13 15  1  0
 13 34  1  0
 14 16  1  0
 14 35  1  0
 15 17  1  0
 15 36  1  0
 16 37  1  0
 17 38  1  0
 17 39  1  0
 18 19  1  0
 18 20  2  0
 19 23  2  0
 20 21  1  0
 21 22  2  0
 21 24  1  0
 22 25  1  0
 23 26  1  0
 23 27  1  0
 24 28  2  0
 25 29  2  0
 25 40  1  0
 26 30  2  0
 26 41  1  0
 27 31  2  0
 27 42  1  0
 28 29  1  0
 28 43  1  0
 30 32  1  0
 30 44  1  0
 31 32  1  0
 31 45  1  0
M  END
> <Name>
5282102

> <AbsoluteEnergy>
61.6073

> <ConfNumber>
1

> <Ionization pH>
6.85_PPP

> <IonizationIndex>
1

> <NumberOfIonizations>
2

> <NumberOfStereoisomers>
1

> <NumberOfTautomers>
4

> <OBJECTID>
9223372560844128269

> <PUBCHEM_ATOM_DEF_STEREO_COUNT>
5

> <PUBCHEM_ATOM_UDEF_STEREO_COUNT>
0

> <PUBCHEM_BOND_DEF_STEREO_COUNT>
0

> <PUBCHEM_BOND_UDEF_STEREO_COUNT>
0

> <PUBCHEM_CACTVS_TAUTO_COUNT>
57

> <PUBCHEM_COMPONENT_COUNT>
1

> <PUBCHEM_COMPOUND_CID>
5282102

> <PUBCHEM_CONFORMER_DIVERSEORDER>
1
50
41
3
43
30
37
48
31
49
33
40
4
36
32
38
22
39
8
45
5
27
47
12
34
6
2
35
19
42
13
44
24
26
23
25
28
15
46
29
21
17
20
7
16
18
14
11
10
9

> <PUBCHEM_CONFORMER_ID>
50993600000001

> <PUBCHEM_CONFORMER_RMSD>
0.8

> <PUBCHEM_COORDINATE_TYPE>
2
5
10

> <PUBCHEM_EFFECTIVE_ROTOR_COUNT>
5.2

> <PUBCHEM_FEATURE_SELFOVERLAP>
96.528

> <PUBCHEM_HEAVY_ATOM_COUNT>
32

> <PUBCHEM_ISOTOPIC_ATOM_COUNT>
0

> <PUBCHEM_MMFF94_ENERGY>
102.6254

> <PUBCHEM_MMFF94_PARTIAL_CHARGES>
45
1 -0.56
10 -0.53
11 -0.53
12 0.28
13 0.28
14 0.28
15 0.28
16 0.56
17 0.28
18 0.09
19 0.05
2 -0.36
20 0.47
21 0.09
22 0.08
23 0.03
24 0.08
25 -0.15
26 -0.15
27 -0.15
28 -0.15
29 0.08
3 -0.68
30 -0.15
31 -0.15
32 0.08
4 -0.68
40 0.4
41 0.4
42 0.4
43 0.4
44 0.15
45 0.15
46 0.15
47 0.15
48 0.15
49 0.15
5 -0.68
50 0.45
51 0.45
52 0.45
6 -0.68
7 -0.16
8 -0.57
9 -0.53

> <PUBCHEM_PHARMACOPHORE_FEATURES>
19
1 1 acceptor
1 10 donor
1 11 donor
1 2 acceptor
1 3 acceptor
1 3 donor
1 4 acceptor
1 4 donor
1 5 acceptor
1 5 donor
1 6 acceptor
1 6 donor
1 7 acceptor
1 8 acceptor
1 9 donor
6 1 12 13 14 15 16 rings
6 21 22 24 25 28 29 rings
6 23 26 27 30 31 32 rings
6 7 18 19 20 21 22 rings

> <PUBCHEM_SHAPE_FINGERPRINT>
10074138 170 17618765290650650882
10165383 225 18336273443285990253
10290309 65 18409157836241186260
11014199 57 17619633484225554738
12156800 1 11271671524431862810
12160290 23 17320969172064703214
12422481 6 17969481763429018130
12633257 1 18051393365295910440
12741549 16 17623546680463118083
12788726 201 17400931795229495934
131258 43 17911242715797886606
13140716 1 18337952418979400203
14028597 1 18059585645850131880
140371 6 17403455174509602991
14114211 68 18116741593135470220
14790565 3 18263089970863568124
14955137 171 18267576902129187298
15230672 131 18263363746240211956
15475509 84 17907872704089553713
15927050 60 18339082700360092342
17980427 26 18270665545917597940
20028762 73 18050296065929985847
20642791 13 17765430237680759214
21033648 29 18197217168397271817
21120745 212 17476649676872622206
21304303 172 17405420001651314263
21796203 349 17979101313367765755
21927370 108 17616827526029962034
22182313 1 17749669589738553719
23558518 356 17620185872595399804
23559900 14 17973998458506943951
3298306 158 18410009927181032702
3411729 13 18260832570480931411
3418910 222 17758681049892165058
5265222 85 18189070840356416692
5385378 56 18410583868293225273
6442390 28 18264772240727886916
6679774 75 18114731708125626122
81228 2 17398943263782962910
9777508 108 17908141328080554394

> <PUBCHEM_SHAPE_MULTIPOLES>
593.98
9.3
6.57
1.41
10.38
6.22
0.15
-4.89
0.87
-8.96
2.33
-0.38
-0.53
0.69

> <PUBCHEM_SHAPE_SELFOVERLAP>
1306.578

> <PUBCHEM_SHAPE_VOLUME>
316

> <RelativeEnergy>
0

> <StereoisomerIndex>
1

> <TautomerIndex>
2

> <LibDock Warning>
no hit found

> <ErrorText>
LibDock failed

$$$$
5282102
  SciTegic09112317153D

 52 55  0  0  0  0            999 V2000
   -1.7180   -0.6130    1.5160 O   0  0  0  1  0  0
    0.5620   -0.3890    1.2040 O   0  0  0  1  0  0
   -1.9120   -4.0460   -0.7890 O   0  0  0  1  0  0
   -4.3350   -2.6030   -0.0650 O   0  0  0  1  0  0
    0.4080   -2.2840   -0.9330 O   0  0  0  1  0  0
   -5.3030   -0.5230    1.5750 O   0  0  0  1  0  0
    2.0320    1.8480   -1.2140 O   0  0  0  1  0  0
    2.9940   -1.6690    0.8140 O   0  0  0  1  0  0
    5.3180   -1.6130   -0.4740 O   0  0  0  1  0  0
    6.2060    1.8170   -3.4780 O   0  0  0  1  0  0
   -3.7840    3.8060    0.5180 O   0  0  0  1  0  0
   -1.9520   -2.6580   -0.5040 C   0  0  1  1  0  0
   -3.0690   -2.3640    0.5220 C   0  0  1  1  0  0
   -0.5910   -2.2010    0.0670 C   0  0  2  1  0  0
   -3.0160   -0.8970    1.0060 C   0  0  1  1  0  0
   -0.6610   -0.7450    0.5760 C   0  0  1  1  0  0
   -4.0120   -0.6090    2.1360 C   0  0  0  1  0  0
    1.4410    0.1370    0.3470 C   0  0  0  1  0  0
    1.1730    1.2770   -0.3360 C   0  0  0  1  0  0
    2.7280   -0.5480    0.1440 C   0  0  0  1  0  0
    3.6070   -0.0100   -0.7230 C   0  0  0  1  0  0
    3.2190    1.2420   -1.4210 C   0  0  0  1  0  0
   -0.1450    1.9480   -0.1090 C   0  0  0  1  0  0
    4.9360   -0.6000   -1.0130 C   0  0  0  1  0  0
    4.0800    1.8020   -2.2980 C   0  0  0  1  0  0
   -0.9380    2.3320   -1.2050 C   0  0  0  1  0  0
   -0.5910    2.1990    1.2020 C   0  0  0  1  0  0
    5.8020    0.0850   -1.9880 C   0  0  0  1  0  0
    5.4060    1.2180   -2.6010 C   0  0  0  1  0  0
   -2.1770    2.9610   -0.9890 C   0  0  0  1  0  0
   -1.8280    2.8300    1.4130 C   0  0  0  1  0  0
   -2.6250    3.2130    0.3180 C   0  0  0  1  0  0
   -2.1580   -2.1300   -1.4380 H   0  0  0  1  0  0
   -2.9750   -3.0310    1.3800 H   0  0  0  1  0  0
   -0.2880   -2.8530    0.8880 H   0  0  0  1  0  0
   -3.2030   -0.2110    0.1790 H   0  0  0  1  0  0
   -0.8370   -0.0420   -0.2410 H   0  0  0  1  0  0
   -4.0130   -1.4190    2.8650 H   0  0  0  1  0  0
   -3.7860    0.3440    2.6150 H   0  0  0  1  0  0
    3.7920    2.7130   -2.8030 H   0  0  0  1  0  0
   -0.6050    2.1430   -2.2150 H   0  0  0  1  0  0
    0.0130    1.9100    2.0490 H   0  0  0  1  0  0
    6.7720   -0.3320   -2.2170 H   0  0  0  1  0  0
   -2.7830    3.2530   -1.8340 H   0  0  0  1  0  0
   -2.1670    3.0200    2.4220 H   0  0  0  1  0  0
   -1.2060   -4.1910   -1.4370 H   0  0  0  1  0  0
   -4.9910   -2.5620    0.6480 H   0  0  0  1  0  0
    1.2660   -2.2290   -0.4870 H   0  0  0  1  0  0
   -5.9180   -0.3400    2.3000 H   0  0  0  1  0  0
    5.9110    2.6300   -3.9090 H   0  0  0  1  0  0
   -4.0800    3.9720    1.4240 H   0  0  0  1  0  0
    2.3340   -2.0190    1.4280 H   0  0  0  1  0  0
  1 15  1  0
  1 16  1  0
  2 16  1  0
  2 18  1  0
  3 12  1  0
  3 46  1  0
  4 13  1  0
  4 47  1  0
  5 14  1  0
  5 48  1  0
  6 17  1  0
  6 49  1  0
  7 19  1  0
  7 22  1  0
  8 20  1  0
  8 52  1  0
  9 24  2  0
 10 29  1  0
 10 50  1  0
 11 32  1  0
 11 51  1  0
 12 13  1  0
 12 14  1  0
 12 33  1  0
 13 15  1  0
 13 34  1  0
 14 16  1  0
 14 35  1  0
 15 17  1  0
 15 36  1  0
 16 37  1  0
 17 38  1  0
 17 39  1  0
 18 19  2  0
 18 20  1  0
 19 23  1  0
 20 21  2  0
 21 22  1  0
 21 24  1  0
 22 25  2  0
 23 26  2  0
 23 27  1  0
 24 28  1  0
 25 29  1  0
 25 40  1  0
 26 30  1  0
 26 41  1  0
 27 31  2  0
 27 42  1  0
 28 29  2  0
 28 43  1  0
 30 32  2  0
 30 44  1  0
 31 32  1  0
 31 45  1  0
M  END
> <Name>
5282102

> <AbsoluteEnergy>
47.2174

> <ConfNumber>
1

> <Ionization pH>
6.85_PPP

> <IonizationIndex>
1

> <NumberOfIonizations>
2

> <NumberOfStereoisomers>
1

> <NumberOfTautomers>
4

> <OBJECTID>
9223372565139095565

> <PUBCHEM_ATOM_DEF_STEREO_COUNT>
5

> <PUBCHEM_ATOM_UDEF_STEREO_COUNT>
0

> <PUBCHEM_BOND_DEF_STEREO_COUNT>
0

> <PUBCHEM_BOND_UDEF_STEREO_COUNT>
0

> <PUBCHEM_CACTVS_TAUTO_COUNT>
57

> <PUBCHEM_COMPONENT_COUNT>
1

> <PUBCHEM_COMPOUND_CID>
5282102

> <PUBCHEM_CONFORMER_DIVERSEORDER>
1
50
41
3
43
30
37
48
31
49
33
40
4
36
32
38
22
39
8
45
5
27
47
12
34
6
2
35
19
42
13
44
24
26
23
25
28
15
46
29
21
17
20
7
16
18
14
11
10
9

> <PUBCHEM_CONFORMER_ID>
50993600000001

> <PUBCHEM_CONFORMER_RMSD>
0.8

> <PUBCHEM_COORDINATE_TYPE>
2
5
10

> <PUBCHEM_EFFECTIVE_ROTOR_COUNT>
5.2

> <PUBCHEM_FEATURE_SELFOVERLAP>
96.528

> <PUBCHEM_HEAVY_ATOM_COUNT>
32

> <PUBCHEM_ISOTOPIC_ATOM_COUNT>
0

> <PUBCHEM_MMFF94_ENERGY>
102.6254

> <PUBCHEM_MMFF94_PARTIAL_CHARGES>
45
1 -0.56
10 -0.53
11 -0.53
12 0.28
13 0.28
14 0.28
15 0.28
16 0.56
17 0.28
18 0.09
19 0.05
2 -0.36
20 0.47
21 0.09
22 0.08
23 0.03
24 0.08
25 -0.15
26 -0.15
27 -0.15
28 -0.15
29 0.08
3 -0.68
30 -0.15
31 -0.15
32 0.08
4 -0.68
40 0.4
41 0.4
42 0.4
43 0.4
44 0.15
45 0.15
46 0.15
47 0.15
48 0.15
49 0.15
5 -0.68
50 0.45
51 0.45
52 0.45
6 -0.68
7 -0.16
8 -0.57
9 -0.53

> <PUBCHEM_PHARMACOPHORE_FEATURES>
19
1 1 acceptor
1 10 donor
1 11 donor
1 2 acceptor
1 3 acceptor
1 3 donor
1 4 acceptor
1 4 donor
1 5 acceptor
1 5 donor
1 6 acceptor
1 6 donor
1 7 acceptor
1 8 acceptor
1 9 donor
6 1 12 13 14 15 16 rings
6 21 22 24 25 28 29 rings
6 23 26 27 30 31 32 rings
6 7 18 19 20 21 22 rings

> <PUBCHEM_SHAPE_FINGERPRINT>
10074138 170 17618765290650650882
10165383 225 18336273443285990253
10290309 65 18409157836241186260
11014199 57 17619633484225554738
12156800 1 11271671524431862810
12160290 23 17320969172064703214
12422481 6 17969481763429018130
12633257 1 18051393365295910440
12741549 16 17623546680463118083
12788726 201 17400931795229495934
131258 43 17911242715797886606
13140716 1 18337952418979400203
14028597 1 18059585645850131880
140371 6 17403455174509602991
14114211 68 18116741593135470220
14790565 3 18263089970863568124
14955137 171 18267576902129187298
15230672 131 18263363746240211956
15475509 84 17907872704089553713
15927050 60 18339082700360092342
17980427 26 18270665545917597940
20028762 73 18050296065929985847
20642791 13 17765430237680759214
21033648 29 18197217168397271817
21120745 212 17476649676872622206
21304303 172 17405420001651314263
21796203 349 17979101313367765755
21927370 108 17616827526029962034
22182313 1 17749669589738553719
23558518 356 17620185872595399804
23559900 14 17973998458506943951
3298306 158 18410009927181032702
3411729 13 18260832570480931411
3418910 222 17758681049892165058
5265222 85 18189070840356416692
5385378 56 18410583868293225273
6442390 28 18264772240727886916
6679774 75 18114731708125626122
81228 2 17398943263782962910
9777508 108 17908141328080554394

> <PUBCHEM_SHAPE_MULTIPOLES>
593.98
9.3
6.57
1.41
10.38
6.22
0.15
-4.89
0.87
-8.96
2.33
-0.38
-0.53
0.69

> <PUBCHEM_SHAPE_SELFOVERLAP>
1306.578

> <PUBCHEM_SHAPE_VOLUME>
316

> <RelativeEnergy>
0

> <StereoisomerIndex>
1

> <TautomerIndex>
3

> <LibDock Warning>
no hit found

> <ErrorText>
LibDock failed

$$$$
5282102
  SciTegic09112317153D

 52 55  0  0  0  0            999 V2000
    0.1620   -0.2420   -1.1850 O   0  0  0  1  0  0
    0.4540   -1.0250    0.9720 O   0  0  0  1  0  0
    2.6780   -2.8690   -2.8760 O   0  0  0  1  0  0
    2.5840    0.6690   -2.6060 O   0  0  0  1  0  0
    2.6950   -2.5280    0.1950 O   0  0  0  1  0  0
   -0.4290   -1.6550   -4.4330 O   0  0  0  1  0  0
   -1.7020    1.7660    1.7450 O   0  0  0  1  0  0
   -1.9710   -2.1320    0.2740 O   0  0  0  1  0  0
   -4.6010   -1.9760    0.3850 O   0  0  0  1  0  0
   -6.2430    2.3440    0.9390 O   0  0  0  1  0  0
    4.3500    3.0780    3.2560 O   0  0  0  1  0  0
    2.6140   -1.7000   -2.0800 C   0  0  1  1  0  0
    1.9430   -0.5610   -2.8940 C   0  0  1  1  0  0
    1.8160   -2.0200   -0.7890 C   0  0  2  1  0  0
    0.4320   -0.4310   -2.5770 C   0  0  1  1  0  0
    1.1190   -0.7510   -0.2550 C   0  0  1  1  0  0
   -0.3570   -1.6660   -3.0260 C   0  0  0  1  0  0
   -0.6480   -0.2900    1.1290 C   0  0  0  1  0  0
   -0.6110    0.9740    1.6220 C   0  0  0  1  0  0
   -1.9360   -0.8870    0.7500 C   0  0  0  1  0  0
   -3.0510   -0.1480    0.9020 C   0  0  0  1  0  0
   -2.8900    1.2610    1.3560 C   0  0  0  1  0  0
    0.7080    1.5330    2.0570 C   0  0  0  1  0  0
   -4.4120   -0.6850    0.6480 C   0  0  0  1  0  0
   -3.9650    2.0740    1.3820 C   0  0  0  1  0  0
    1.6300    0.7160    2.7340 C   0  0  0  1  0  0
    1.0260    2.8750    1.7870 C   0  0  0  1  0  0
   -5.4710    0.1500    0.6930 C   0  0  0  1  0  0
   -5.3030    1.5850    1.0010 C   0  0  0  1  0  0
    2.8680    1.2420    3.1400 C   0  0  0  1  0  0
    2.2650    3.4010    2.1960 C   0  0  0  1  0  0
    3.1890    2.5860    2.8740 C   0  0  0  1  0  0
    3.6510   -1.4410   -1.8530 H   0  0  0  1  0  0
    2.0830   -0.7060   -3.9680 H   0  0  0  1  0  0
    1.0590   -2.7870   -0.9630 H   0  0  0  1  0  0
    0.0100    0.4290   -3.0980 H   0  0  0  1  0  0
    1.8520    0.0330   -0.0700 H   0  0  0  1  0  0
    0.1530   -2.5790   -2.7180 H   0  0  0  1  0  0
   -1.3720   -1.6380   -2.6330 H   0  0  0  1  0  0
   -3.8490    3.1050    1.6870 H   0  0  0  1  0  0
    1.3950   -0.3180    2.9450 H   0  0  0  1  0  0
    0.3220    3.5110    1.2690 H   0  0  0  1  0  0
   -6.4610   -0.2330    0.5060 H   0  0  0  1  0  0
    3.5750    0.6120    3.6600 H   0  0  0  1  0  0
    2.5040    4.4330    1.9870 H   0  0  0  1  0  0
    3.1360   -3.5470   -2.3540 H   0  0  0  1  0  0
    2.1650    1.3470   -3.1590 H   0  0  0  1  0  0
    2.1530   -2.7790    0.9610 H   0  0  0  1  0  0
   -0.9300   -2.4420   -4.7000 H   0  0  0  1  0  0
   -5.4970   -2.2990    0.2210 H   0  0  0  1  0  0
    4.5580    4.0020    3.0650 H   0  0  0  1  0  0
   -1.1470   -2.6340    0.2000 H   0  0  0  1  0  0
  1 15  1  0
  1 16  1  0
  2 16  1  0
  2 18  1  0
  3 12  1  0
  3 46  1  0
  4 13  1  0
  4 47  1  0
  5 14  1  0
  5 48  1  0
  6 17  1  0
  6 49  1  0
  7 19  1  0
  7 22  1  0
  8 20  1  0
  8 52  1  0
  9 24  1  0
  9 50  1  0
 10 29  2  0
 11 32  1  0
 11 51  1  0
 12 13  1  0
 12 14  1  0
 12 33  1  0
 13 15  1  0
 13 34  1  0
 14 16  1  0
 14 35  1  0
 15 17  1  0
 15 36  1  0
 16 37  1  0
 17 38  1  0
 17 39  1  0
 18 19  2  0
 18 20  1  0
 19 23  1  0
 20 21  2  0
 21 22  1  0
 21 24  1  0
 22 25  2  0
 23 26  2  0
 23 27  1  0
 24 28  2  0
 25 29  1  0
 25 40  1  0
 26 30  1  0
 26 41  1  0
 27 31  2  0
 27 42  1  0
 28 29  1  0
 28 43  1  0
 30 32  2  0
 30 44  1  0
 31 32  1  0
 31 45  1  0
M  END
> <Name>
5282102

> <AbsoluteEnergy>
47.4062

> <ConfNumber>
1

> <Ionization pH>
6.85_PPP

> <IonizationIndex>
1

> <NumberOfIonizations>
2

> <NumberOfStereoisomers>
1

> <NumberOfTautomers>
4

> <OBJECTID>
9223372569434062861

> <PUBCHEM_ATOM_DEF_STEREO_COUNT>
5

> <PUBCHEM_ATOM_UDEF_STEREO_COUNT>
0

> <PUBCHEM_BOND_DEF_STEREO_COUNT>
0

> <PUBCHEM_BOND_UDEF_STEREO_COUNT>
0

> <PUBCHEM_CACTVS_TAUTO_COUNT>
57

> <PUBCHEM_COMPONENT_COUNT>
1

> <PUBCHEM_COMPOUND_CID>
5282102

> <PUBCHEM_CONFORMER_DIVERSEORDER>
1
50
41
3
43
30
37
48
31
49
33
40
4
36
32
38
22
39
8
45
5
27
47
12
34
6
2
35
19
42
13
44
24
26
23
25
28
15
46
29
21
17
20
7
16
18
14
11
10
9

> <PUBCHEM_CONFORMER_ID>
50993600000001

> <PUBCHEM_CONFORMER_RMSD>
0.8

> <PUBCHEM_COORDINATE_TYPE>
2
5
10

> <PUBCHEM_EFFECTIVE_ROTOR_COUNT>
5.2

> <PUBCHEM_FEATURE_SELFOVERLAP>
96.528

> <PUBCHEM_HEAVY_ATOM_COUNT>
32

> <PUBCHEM_ISOTOPIC_ATOM_COUNT>
0

> <PUBCHEM_MMFF94_ENERGY>
102.6254

> <PUBCHEM_MMFF94_PARTIAL_CHARGES>
45
1 -0.56
10 -0.53
11 -0.53
12 0.28
13 0.28
14 0.28
15 0.28
16 0.56
17 0.28
18 0.09
19 0.05
2 -0.36
20 0.47
21 0.09
22 0.08
23 0.03
24 0.08
25 -0.15
26 -0.15
27 -0.15
28 -0.15
29 0.08
3 -0.68
30 -0.15
31 -0.15
32 0.08
4 -0.68
40 0.4
41 0.4
42 0.4
43 0.4
44 0.15
45 0.15
46 0.15
47 0.15
48 0.15
49 0.15
5 -0.68
50 0.45
51 0.45
52 0.45
6 -0.68
7 -0.16
8 -0.57
9 -0.53

> <PUBCHEM_PHARMACOPHORE_FEATURES>
19
1 1 acceptor
1 10 donor
1 11 donor
1 2 acceptor
1 3 acceptor
1 3 donor
1 4 acceptor
1 4 donor
1 5 acceptor
1 5 donor
1 6 acceptor
1 6 donor
1 7 acceptor
1 8 acceptor
1 9 donor
6 1 12 13 14 15 16 rings
6 21 22 24 25 28 29 rings
6 23 26 27 30 31 32 rings
6 7 18 19 20 21 22 rings

> <PUBCHEM_SHAPE_FINGERPRINT>
10074138 170 17618765290650650882
10165383 225 18336273443285990253
10290309 65 18409157836241186260
11014199 57 17619633484225554738
12156800 1 11271671524431862810
12160290 23 17320969172064703214
12422481 6 17969481763429018130
12633257 1 18051393365295910440
12741549 16 17623546680463118083
12788726 201 17400931795229495934
131258 43 17911242715797886606
13140716 1 18337952418979400203
14028597 1 18059585645850131880
140371 6 17403455174509602991
14114211 68 18116741593135470220
14790565 3 18263089970863568124
14955137 171 18267576902129187298
15230672 131 18263363746240211956
15475509 84 17907872704089553713
15927050 60 18339082700360092342
17980427 26 18270665545917597940
20028762 73 18050296065929985847
20642791 13 17765430237680759214
21033648 29 18197217168397271817
21120745 212 17476649676872622206
21304303 172 17405420001651314263
21796203 349 17979101313367765755
21927370 108 17616827526029962034
22182313 1 17749669589738553719
23558518 356 17620185872595399804
23559900 14 17973998458506943951
3298306 158 18410009927181032702
3411729 13 18260832570480931411
3418910 222 17758681049892165058
5265222 85 18189070840356416692
5385378 56 18410583868293225273
6442390 28 18264772240727886916
6679774 75 18114731708125626122
81228 2 17398943263782962910
9777508 108 17908141328080554394

> <PUBCHEM_SHAPE_MULTIPOLES>
593.98
9.3
6.57
1.41
10.38
6.22
0.15
-4.89
0.87
-8.96
2.33
-0.38
-0.53
0.69

> <PUBCHEM_SHAPE_SELFOVERLAP>
1306.578

> <PUBCHEM_SHAPE_VOLUME>
316

> <RelativeEnergy>
0

> <StereoisomerIndex>
1

> <TautomerIndex>
4

> <LibDock Warning>
no hit found

> <ErrorText>
LibDock failed

$$$$
5282102
  SciTegic09112317153D

 51 54  0  0  0  0            999 V2000
    1.7950   -0.6240   -1.5800 O   0  0  0  1  0  0
   -0.4450   -0.4650   -1.0250 O   0  0  0  1  0  0
    2.5280   -3.5040    1.3010 O   0  0  0  1  0  0
    4.7270   -2.1080    0.0030 O   0  0  0  1  0  0
    0.1080   -1.8790    1.4010 O   0  0  0  1  0  0
    3.6460   -1.6930   -3.3260 O   0  0  0  1  0  0
   -1.8280    2.1020    1.0570 O   0  0  0  1  0  0
   -2.6070   -1.6860   -0.0240 O   0  0  0  1  0  0
   -4.8190   -1.6170    1.5830 O   0  0  0  1  0  0
   -5.6440    2.4600    3.9130 O   0  0  0  1  0  0
    3.5370    4.1400   -1.8510 O   0  5  0  1  0  0
    2.4240   -2.2020    0.7480 C   0  0  1  1  0  0
    3.3860   -2.0610   -0.4500 C   0  0  1  1  0  0
    0.9730   -1.9450    0.2820 C   0  0  2  1  0  0
    3.1610   -0.7270   -1.2000 C   0  0  1  1  0  0
    0.8690   -0.6190   -0.5040 C   0  0  1  1  0  0
    3.9930   -0.6200   -2.4820 C   0  0  0  1  0  0
   -1.2570    0.1690   -0.1770 C   0  0  0  1  0  0
   -1.0140    1.4500    0.2020 C   0  0  0  1  0  0
   -2.4420   -0.5480    0.3510 C   0  0  0  1  0  0
   -3.3000    0.2210    1.2920 C   0  0  0  1  0  0
   -2.9340    1.5550    1.6050 C   0  0  0  1  0  0
    0.1860    2.1600   -0.3410 C   0  0  0  1  0  0
   -4.4620   -0.3560    1.8690 C   0  0  0  1  0  0
   -3.7320    2.3140    2.4950 C   0  0  0  1  0  0
    1.1970    2.6030    0.5320 C   0  0  0  1  0  0
    0.3060    2.3880   -1.7240 C   0  0  0  1  0  0
   -5.2520    0.4090    2.7590 C   0  0  0  1  0  0
   -4.8880    1.7400    3.0710 C   0  0  0  1  0  0
    2.3250    3.2690    0.0240 C   0  0  0  1  0  0
    1.4340    3.0540   -2.2320 C   0  0  0  1  0  0
    2.4440    3.4950   -1.3580 C   0  0  0  1  0  0
    2.6940   -1.4860    1.5290 H   0  0  0  1  0  0
    3.2470   -2.8930   -1.1430 H   0  0  0  1  0  0
    0.6290   -2.7660   -0.3510 H   0  0  0  1  0  0
    3.3890    0.1220   -0.5520 H   0  0  0  1  0  0
    1.0830    0.2430    0.1310 H   0  0  0  1  0  0
    5.0580   -0.6940   -2.2590 H   0  0  0  1  0  0
    3.7730    0.3090   -3.0070 H   0  0  0  1  0  0
   -3.4550    3.3300    2.7330 H   0  0  0  1  0  0
    1.1140    2.4340    1.5980 H   0  0  0  1  0  0
   -0.4640    2.0520   -2.4020 H   0  0  0  1  0  0
   -6.1380   -0.0270    3.2000 H   0  0  0  1  0  0
    3.0980    3.6070    0.6970 H   0  0  0  1  0  0
    1.5230    3.2280   -3.2940 H   0  0  0  1  0  0
    3.4460   -3.6250    1.5860 H   0  0  0  1  0  0
    5.2950   -2.0340   -0.7810 H   0  0  0  1  0  0
   -0.7920   -2.0450    1.0830 H   0  0  0  1  0  0
    4.1800   -1.6100   -4.1300 H   0  0  0  1  0  0
   -4.2770   -2.1360    0.9780 H   0  0  0  1  0  0
   -6.4320    2.0590    4.3030 H   0  0  0  1  0  0
  1 15  1  0
  1 16  1  0
  2 16  1  0
  2 18  1  0
  3 12  1  0
  3 46  1  0
  4 13  1  0
  4 47  1  0
  5 14  1  0
  5 48  1  0
  6 17  1  0
  6 49  1  0
  7 19  1  0
  7 22  1  0
  8 20  2  0
  9 24  1  0
  9 50  1  0
 10 29  1  0
 10 51  1  0
 11 32  1  0
 12 13  1  0
 12 14  1  0
 12 33  1  0
 13 15  1  0
 13 34  1  0
 14 16  1  0
 14 35  1  0
 15 17  1  0
 15 36  1  0
 16 37  1  0
 17 38  1  0
 17 39  1  0
 18 19  2  0
 18 20  1  0
 19 23  1  0
 20 21  1  0
 21 22  2  0
 21 24  1  0
 22 25  1  0
 23 26  2  0
 23 27  1  0
 24 28  2  0
 25 29  2  0
 25 40  1  0
 26 30  1  0
 26 41  1  0
 27 31  2  0
 27 42  1  0
 28 29  1  0
 28 43  1  0
 30 32  2  0
 30 44  1  0
 31 32  1  0
 31 45  1  0
M  CHG  1  11  -1
M  END
> <Name>
5282102

> <AbsoluteEnergy>
56.9507

> <ConfNumber>
1

> <Ionization pH>
6.85_DPP

> <IonizationIndex>
2

> <NumberOfIonizations>
2

> <NumberOfStereoisomers>
1

> <NumberOfTautomers>
3

> <OBJECTID>
9223372573729030157

> <PUBCHEM_ATOM_DEF_STEREO_COUNT>
5

> <PUBCHEM_ATOM_UDEF_STEREO_COUNT>
0

> <PUBCHEM_BOND_DEF_STEREO_COUNT>
0

> <PUBCHEM_BOND_UDEF_STEREO_COUNT>
0

> <PUBCHEM_CACTVS_TAUTO_COUNT>
57

> <PUBCHEM_COMPONENT_COUNT>
1

> <PUBCHEM_COMPOUND_CID>
5282102

> <PUBCHEM_CONFORMER_DIVERSEORDER>
1
50
41
3
43
30
37
48
31
49
33
40
4
36
32
38
22
39
8
45
5
27
47
12
34
6
2
35
19
42
13
44
24
26
23
25
28
15
46
29
21
17
20
7
16
18
14
11
10
9

> <PUBCHEM_CONFORMER_ID>
50993600000001

> <PUBCHEM_CONFORMER_RMSD>
0.8

> <PUBCHEM_COORDINATE_TYPE>
2
5
10

> <PUBCHEM_EFFECTIVE_ROTOR_COUNT>
5.2

> <PUBCHEM_FEATURE_SELFOVERLAP>
96.528

> <PUBCHEM_HEAVY_ATOM_COUNT>
32

> <PUBCHEM_ISOTOPIC_ATOM_COUNT>
0

> <PUBCHEM_MMFF94_ENERGY>
102.6254

> <PUBCHEM_MMFF94_PARTIAL_CHARGES>
45
1 -0.56
10 -0.53
11 -0.53
12 0.28
13 0.28
14 0.28
15 0.28
16 0.56
17 0.28
18 0.09
19 0.05
2 -0.36
20 0.47
21 0.09
22 0.08
23 0.03
24 0.08
25 -0.15
26 -0.15
27 -0.15
28 -0.15
29 0.08
3 -0.68
30 -0.15
31 -0.15
32 0.08
4 -0.68
40 0.4
41 0.4
42 0.4
43 0.4
44 0.15
45 0.15
46 0.15
47 0.15
48 0.15
49 0.15
5 -0.68
50 0.45
51 0.45
52 0.45
6 -0.68
7 -0.16
8 -0.57
9 -0.53

> <PUBCHEM_PHARMACOPHORE_FEATURES>
19
1 1 acceptor
1 10 donor
1 11 donor
1 2 acceptor
1 3 acceptor
1 3 donor
1 4 acceptor
1 4 donor
1 5 acceptor
1 5 donor
1 6 acceptor
1 6 donor
1 7 acceptor
1 8 acceptor
1 9 donor
6 1 12 13 14 15 16 rings
6 21 22 24 25 28 29 rings
6 23 26 27 30 31 32 rings
6 7 18 19 20 21 22 rings

> <PUBCHEM_SHAPE_FINGERPRINT>
10074138 170 17618765290650650882
10165383 225 18336273443285990253
10290309 65 18409157836241186260
11014199 57 17619633484225554738
12156800 1 11271671524431862810
12160290 23 17320969172064703214
12422481 6 17969481763429018130
12633257 1 18051393365295910440
12741549 16 17623546680463118083
12788726 201 17400931795229495934
131258 43 17911242715797886606
13140716 1 18337952418979400203
14028597 1 18059585645850131880
140371 6 17403455174509602991
14114211 68 18116741593135470220
14790565 3 18263089970863568124
14955137 171 18267576902129187298
15230672 131 18263363746240211956
15475509 84 17907872704089553713
15927050 60 18339082700360092342
17980427 26 18270665545917597940
20028762 73 18050296065929985847
20642791 13 17765430237680759214
21033648 29 18197217168397271817
21120745 212 17476649676872622206
21304303 172 17405420001651314263
21796203 349 17979101313367765755
21927370 108 17616827526029962034
22182313 1 17749669589738553719
23558518 356 17620185872595399804
23559900 14 17973998458506943951
3298306 158 18410009927181032702
3411729 13 18260832570480931411
3418910 222 17758681049892165058
5265222 85 18189070840356416692
5385378 56 18410583868293225273
6442390 28 18264772240727886916
6679774 75 18114731708125626122
81228 2 17398943263782962910
9777508 108 17908141328080554394

> <PUBCHEM_SHAPE_MULTIPOLES>
593.98
9.3
6.57
1.41
10.38
6.22
0.15
-4.89
0.87
-8.96
2.33
-0.38
-0.53
0.69

> <PUBCHEM_SHAPE_SELFOVERLAP>
1306.578

> <PUBCHEM_SHAPE_VOLUME>
316

> <RelativeEnergy>
0

> <StereoisomerIndex>
1

> <TautomerIndex>
1

> <LibDock Warning>
no hit found

> <ErrorText>
LibDock failed

$$$$
5282102
  SciTegic09112317153D

 51 54  0  0  0  0            999 V2000
    2.5140   -0.2110   -0.1850 O   0  0  0  1  0  0
    0.1980   -0.1750   -0.5750 O   0  0  0  1  0  0
    0.7890   -2.3210   -2.5520 O   0  0  0  1  0  0
    4.1780   -2.4250   -1.2950 O   0  0  0  1  0  0
    2.0530   -3.0020    0.7660 O   0  0  0  1  0  0
    2.0570    1.8120   -1.9920 O   0  0  0  1  0  0
   -1.9590    1.4640    1.8060 O   0  0  0  1  0  0
   -1.9130   -1.9760   -0.5550 O   0  0  0  1  0  0
   -4.3030   -2.5420    0.4620 O   0  0  0  1  0  0
   -6.2220    0.3290    3.5680 O   0  0  0  1  0  0
    3.4420    4.8000    0.8780 O   0  5  0  1  0  0
    1.7950   -2.6470   -1.6100 C   0  0  1  1  0  0
    3.0690   -1.8340   -1.9460 C   0  0  1  1  0  0
    1.2600   -2.3290   -0.1930 C   0  0  2  1  0  0
    2.9710   -0.3430   -1.5320 C   0  0  1  1  0  0
    1.2580   -0.8140    0.1240 C   0  0  1  1  0  0
    2.0790    0.4850   -2.4670 C   0  0  0  1  0  0
   -0.8550    0.0690    0.2090 C   0  0  0  1  0  0
   -0.9160    1.1730    0.9940 C   0  0  0  1  0  0
   -1.9710   -0.8890    0.2160 C   0  0  0  1  0  0
   -3.0260   -0.6360    1.0120 C   0  0  0  1  0  0
   -2.9960    0.5980    1.8350 C   0  0  0  1  0  0
    0.2340    2.1310    0.9650 C   0  0  0  1  0  0
   -4.2120   -1.5220    1.1070 C   0  0  0  1  0  0
   -4.0400    0.8770    2.6450 C   0  0  0  1  0  0
    1.1960    2.1070    1.9890 C   0  0  0  1  0  0
    0.3500    3.0560   -0.0890 C   0  0  0  1  0  0
   -5.3010   -1.1340    2.0220 C   0  0  0  1  0  0
   -5.2270   -0.0010    2.7510 C   0  0  0  1  0  0
    2.2770    3.0050    1.9590 C   0  0  0  1  0  0
    1.4330    3.9540   -0.1160 C   0  0  0  1  0  0
    2.3950    3.9300    0.9080 C   0  0  0  1  0  0
    1.9670   -3.7170   -1.7320 H   0  0  0  1  0  0
    3.2960   -1.9060   -3.0110 H   0  0  0  1  0  0
    0.2540   -2.7320   -0.0670 H   0  0  0  1  0  0
    3.9620    0.1100   -1.5630 H   0  0  0  1  0  0
    1.0740   -0.6480    1.1870 H   0  0  0  1  0  0
    1.0570    0.1050   -2.4630 H   0  0  0  1  0  0
    2.4860    0.4950   -3.4780 H   0  0  0  1  0  0
   -4.0140    1.7780    3.2420 H   0  0  0  1  0  0
    1.1150    1.4000    2.8010 H   0  0  0  1  0  0
   -0.3850    3.0830   -0.8800 H   0  0  0  1  0  0
   -6.1720   -1.7650    2.1070 H   0  0  0  1  0  0
    3.0150    2.9830    2.7490 H   0  0  0  1  0  0
    1.5190    4.6630   -0.9250 H   0  0  0  1  0  0
    1.0990   -2.6300   -3.4180 H   0  0  0  1  0  0
    4.9740   -1.9750   -1.6190 H   0  0  0  1  0  0
    1.6290   -2.8740    1.6290 H   0  0  0  1  0  0
    1.4900    2.3220   -2.5920 H   0  0  0  1  0  0
   -6.9940   -0.2500    3.6330 H   0  0  0  1  0  0
   -1.1380   -2.1180   -1.1140 H   0  0  0  1  0  0
  1 15  1  0
  1 16  1  0
  2 16  1  0
  2 18  1  0
  3 12  1  0
  3 46  1  0
  4 13  1  0
  4 47  1  0
  5 14  1  0
  5 48  1  0
  6 17  1  0
  6 49  1  0
  7 19  1  0
  7 22  1  0
  8 20  1  0
  8 51  1  0
  9 24  2  0
 10 29  1  0
 10 50  1  0
 11 32  1  0
 12 13  1  0
 12 14  1  0
 12 33  1  0
 13 15  1  0
 13 34  1  0
 14 16  1  0
 14 35  1  0
 15 17  1  0
 15 36  1  0
 16 37  1  0
 17 38  1  0
 17 39  1  0
 18 19  2  0
 18 20  1  0
 19 23  1  0
 20 21  2  0
 21 22  1  0
 21 24  1  0
 22 25  2  0
 23 26  2  0
 23 27  1  0
 24 28  1  0
 25 29  1  0
 25 40  1  0
 26 30  1  0
 26 41  1  0
 27 31  2  0
 27 42  1  0
 28 29  2  0
 28 43  1  0
 30 32  2  0
 30 44  1  0
 31 32  1  0
 31 45  1  0
M  CHG  1  11  -1
M  END
> <Name>
5282102

> <AbsoluteEnergy>
46.5878

> <ConfNumber>
1

> <Ionization pH>
6.85_DPP

> <IonizationIndex>
2

> <NumberOfIonizations>
2

> <NumberOfStereoisomers>
1

> <NumberOfTautomers>
3

> <OBJECTID>
9223372578023997453

> <PUBCHEM_ATOM_DEF_STEREO_COUNT>
5

> <PUBCHEM_ATOM_UDEF_STEREO_COUNT>
0

> <PUBCHEM_BOND_DEF_STEREO_COUNT>
0

> <PUBCHEM_BOND_UDEF_STEREO_COUNT>
0

> <PUBCHEM_CACTVS_TAUTO_COUNT>
57

> <PUBCHEM_COMPONENT_COUNT>
1

> <PUBCHEM_COMPOUND_CID>
5282102

> <PUBCHEM_CONFORMER_DIVERSEORDER>
1
50
41
3
43
30
37
48
31
49
33
40
4
36
32
38
22
39
8
45
5
27
47
12
34
6
2
35
19
42
13
44
24
26
23
25
28
15
46
29
21
17
20
7
16
18
14
11
10
9

> <PUBCHEM_CONFORMER_ID>
50993600000001

> <PUBCHEM_CONFORMER_RMSD>
0.8

> <PUBCHEM_COORDINATE_TYPE>
2
5
10

> <PUBCHEM_EFFECTIVE_ROTOR_COUNT>
5.2

> <PUBCHEM_FEATURE_SELFOVERLAP>
96.528

> <PUBCHEM_HEAVY_ATOM_COUNT>
32

> <PUBCHEM_ISOTOPIC_ATOM_COUNT>
0

> <PUBCHEM_MMFF94_ENERGY>
102.6254

> <PUBCHEM_MMFF94_PARTIAL_CHARGES>
45
1 -0.56
10 -0.53
11 -0.53
12 0.28
13 0.28
14 0.28
15 0.28
16 0.56
17 0.28
18 0.09
19 0.05
2 -0.36
20 0.47
21 0.09
22 0.08
23 0.03
24 0.08
25 -0.15
26 -0.15
27 -0.15
28 -0.15
29 0.08
3 -0.68
30 -0.15
31 -0.15
32 0.08
4 -0.68
40 0.4
41 0.4
42 0.4
43 0.4
44 0.15
45 0.15
46 0.15
47 0.15
48 0.15
49 0.15
5 -0.68
50 0.45
51 0.45
52 0.45
6 -0.68
7 -0.16
8 -0.57
9 -0.53

> <PUBCHEM_PHARMACOPHORE_FEATURES>
19
1 1 acceptor
1 10 donor
1 11 donor
1 2 acceptor
1 3 acceptor
1 3 donor
1 4 acceptor
1 4 donor
1 5 acceptor
1 5 donor
1 6 acceptor
1 6 donor
1 7 acceptor
1 8 acceptor
1 9 donor
6 1 12 13 14 15 16 rings
6 21 22 24 25 28 29 rings
6 23 26 27 30 31 32 rings
6 7 18 19 20 21 22 rings

> <PUBCHEM_SHAPE_FINGERPRINT>
10074138 170 17618765290650650882
10165383 225 18336273443285990253
10290309 65 18409157836241186260
11014199 57 17619633484225554738
12156800 1 11271671524431862810
12160290 23 17320969172064703214
12422481 6 17969481763429018130
12633257 1 18051393365295910440
12741549 16 17623546680463118083
12788726 201 17400931795229495934
131258 43 17911242715797886606
13140716 1 18337952418979400203
14028597 1 18059585645850131880
140371 6 17403455174509602991
14114211 68 18116741593135470220
14790565 3 18263089970863568124
14955137 171 18267576902129187298
15230672 131 18263363746240211956
15475509 84 17907872704089553713
15927050 60 18339082700360092342
17980427 26 18270665545917597940
20028762 73 18050296065929985847
20642791 13 17765430237680759214
21033648 29 18197217168397271817
21120745 212 17476649676872622206
21304303 172 17405420001651314263
21796203 349 17979101313367765755
21927370 108 17616827526029962034
22182313 1 17749669589738553719
23558518 356 17620185872595399804
23559900 14 17973998458506943951
3298306 158 18410009927181032702
3411729 13 18260832570480931411
3418910 222 17758681049892165058
5265222 85 18189070840356416692
5385378 56 18410583868293225273
6442390 28 18264772240727886916
6679774 75 18114731708125626122
81228 2 17398943263782962910
9777508 108 17908141328080554394

> <PUBCHEM_SHAPE_MULTIPOLES>
593.98
9.3
6.57
1.41
10.38
6.22
0.15
-4.89
0.87
-8.96
2.33
-0.38
-0.53
0.69

> <PUBCHEM_SHAPE_SELFOVERLAP>
1306.578

> <PUBCHEM_SHAPE_VOLUME>
316

> <RelativeEnergy>
0

> <StereoisomerIndex>
1

> <TautomerIndex>
2

> <LibDock Warning>
no hit found

> <ErrorText>
LibDock failed

$$$$
5323592
  SciTegic09112317153D

 50 51  0  0  0  0            999 V2000
   -1.9480   -1.1850   -0.7330 O   0  0  0  1  0  0
   -0.5520    0.4010   -1.6760 O   0  0  0  1  0  0
   -3.3100    1.8250    1.6970 O   0  0  0  1  0  0
   -2.6280   -0.7980    2.0970 O   0  0  0  1  0  0
   -2.0770    2.4990   -0.6560 O   0  0  0  1  0  0
   -5.4130   -2.1050   -0.8160 O   0  0  0  1  0  0
    0.6530   -1.3830   -0.3200 O   0  0  0  1  0  0
    3.7160    1.4400    0.5750 O   0  0  0  1  0  0
    1.3540    4.6150   -1.8170 O   0  0  0  1  0  0
   -3.5600    0.9550    0.6000 C   0  0  2  1  0  0
   -3.5550   -0.5380    1.0500 C   0  0  1  1  0  0
   -2.6020    1.1810   -0.6060 C   0  0  2  1  0  0
   -3.2170   -1.4750   -0.1350 C   0  0  1  1  0  0
   -1.4520    0.1500   -0.6070 C   0  0  1  1  0  0
   -4.2720   -1.3970   -1.2450 C   0  0  0  1  0  0
    0.4350    1.2240   -1.3290 C   0  0  0  1  0  0
    1.5760    0.7640   -0.4790 C   0  0  0  1  0  0
    2.7570   -1.0070    0.8330 C   0  0  1  1  0  0
    1.6180   -0.5160   -0.0240 C   0  0  0  1  0  0
    0.3760    2.4970   -1.7660 C   0  0  0  1  0  0
    2.3910   -2.2620    1.6280 C   0  0  0  1  0  0
    2.6500    1.7570   -0.1570 C   0  0  0  1  0  0
    4.0550   -1.1720    0.0410 C   0  0  0  1  0  0
    1.4250    3.4730   -1.4280 C   0  0  0  1  0  0
    2.5630    3.0260   -0.6090 C   0  0  0  1  0  0
    3.3420   -2.5190    2.7980 C   0  0  0  1  0  0
   -4.5680    1.2090    0.2640 H   0  0  0  1  0  0
   -4.5350   -0.7920    1.4540 H   0  0  0  1  0  0
   -3.1670    1.0630   -1.5310 H   0  0  0  1  0  0
   -3.1730   -2.5140    0.1990 H   0  0  0  1  0  0
   -0.8890    0.2150    0.3260 H   0  0  0  1  0  0
   -3.9050   -1.8640   -2.1590 H   0  0  0  1  0  0
   -4.5630   -0.3620   -1.4280 H   0  0  0  1  0  0
    2.8120   -0.1390    1.4880 H   0  0  0  1  0  0
   -0.4570    2.8150   -2.3780 H   0  0  0  1  0  0
    1.3580   -2.2070    1.9760 H   0  0  0  1  0  0
    2.3390   -3.1320    0.9740 H   0  0  0  1  0  0
    4.9190   -1.2850    0.6950 H   0  0  0  1  0  0
    4.2300   -0.3050   -0.5960 H   0  0  0  1  0  0
    4.0070   -2.0510   -0.6010 H   0  0  0  1  0  0
    3.3440    3.7320   -0.3660 H   0  0  0  1  0  0
    3.0300   -3.3970    3.3620 H   0  0  0  1  0  0
    4.3600   -2.6670    2.4400 H   0  0  0  1  0  0
    3.3500   -1.6700    3.4820 H   0  0  0  1  0  0
   -4.0280    1.6950    2.3360 H   0  0  0  1  0  0
   -2.8170   -1.6900    2.4300 H   0  0  0  1  0  0
   -2.8290    3.1010   -0.7800 H   0  0  0  1  0  0
   -6.0700   -2.0450   -1.5290 H   0  0  0  1  0  0
    4.3820    2.1130    0.7570 H   0  0  0  1  0  0
    0.7510   -2.3070   -0.0540 H   0  0  0  1  0  0
  1 13  1  0
  1 14  1  0
  2 14  1  0
  2 16  1  0
  3 10  1  0
  3 45  1  0
  4 11  1  0
  4 46  1  0
  5 12  1  0
  5 47  1  0
  6 15  1  0
  6 48  1  0
  7 19  1  0
  7 50  1  0
  8 22  1  0
  8 49  1  0
  9 24  2  0
 10 11  1  0
 10 12  1  0
 10 27  1  0
 11 13  1  0
 11 28  1  0
 12 14  1  0
 12 29  1  0
 13 15  1  0
 13 30  1  0
 14 31  1  0
 15 32  1  0
 15 33  1  0
 16 17  1  0
 16 20  2  0
 17 19  2  0
 17 22  1  0
 18 19  1  0
 18 21  1  0
 18 23  1  0
 18 34  1  0
 20 24  1  0
 20 35  1  0
 21 26  1  0
 21 36  1  0
 21 37  1  0
 22 25  2  0
 23 38  1  0
 23 39  1  0
 23 40  1  0
 24 25  1  0
 25 41  1  0
 26 42  1  0
 26 43  1  0
 26 44  1  0
M  END
> <Name>
5323592

> <AbsoluteEnergy>
52.3519

> <ConfNumber>
1

> <Ionization pH>
6.53_PP

> <IonizationIndex>
1

> <NumberOfIonizations>
2

> <NumberOfStereoisomers>
64

> <NumberOfTautomers>
3

> <OBJECTID>
9223373205089222669

> <PUBCHEM_ATOM_DEF_STEREO_COUNT>
0

> <PUBCHEM_ATOM_UDEF_STEREO_COUNT>
6

> <PUBCHEM_BONDANNOTATIONS>
13  15  3
16  17  8
16  20  8
17  22  8
18  23  3
14  2  3
20  24  8
22  25  8
24  25  8
10  3  3
11  4  3
12  5  3

> <PUBCHEM_BOND_DEF_STEREO_COUNT>
0

> <PUBCHEM_BOND_UDEF_STEREO_COUNT>
0

> <PUBCHEM_CACTVS_COMPLEXITY>
473

> <PUBCHEM_CACTVS_HBOND_ACCEPTOR>
9

> <PUBCHEM_CACTVS_HBOND_DONOR>
6

> <PUBCHEM_CACTVS_ROTATABLE_BOND>
6

> <PUBCHEM_CACTVS_SUBSKEYS>
AAADceB4PAAAAAAAAAAAAAAAAAAAAAAAAAA0QAAAAAAAAAABAAAAGgAACAAADRSwmAMyDoAABgCIAqBSAAACCAAkIAAAiAEGCMgdNzaGNRqieWCl4BUPuQfI7OzOIAAACAAIAABAAAAQABAAAAAAAAAAAA==

> <PUBCHEM_CACTVS_TAUTO_COUNT>
-1

> <PUBCHEM_CACTVS_TPSA>
157

> <PUBCHEM_COMPONENT_COUNT>
1

> <PUBCHEM_COMPOUND_CANONICALIZED>
1

> <PUBCHEM_COMPOUND_CID>
5323592

> <PUBCHEM_COORDINATE_TYPE>
1
5
255

> <PUBCHEM_EXACT_MASS>
372.14203234

> <PUBCHEM_HEAVY_ATOM_COUNT>
26

> <PUBCHEM_ISOTOPIC_ATOM_COUNT>
0

> <PUBCHEM_IUPAC_CAS_NAME>
1-[2,4-dihydroxy-6-[[3,4,5-trihydroxy-6-(hydroxymethyl)-2-oxanyl]oxy]phenyl]-2-methyl-1-butanone

> <PUBCHEM_IUPAC_INCHI>
InChI=1S/C17H24O9/c1-3-7(2)13(21)12-9(20)4-8(19)5-10(12)25-17-16(24)15(23)14(22)11(6-18)26-17/h4-5,7,11,14-20,22-24H,3,6H2,1-2H3

> <PUBCHEM_IUPAC_INCHIKEY>
MMJKSUJYDHTZJV-UHFFFAOYSA-N

> <PUBCHEM_IUPAC_NAME>
1-[2,4-dihydroxy-6-[3,4,5-trihydroxy-6-(hydroxymethyl)oxan-2-yl]oxyphenyl]-2-methylbutan-1-one

> <PUBCHEM_IUPAC_NAME_MARKUP>
1-[2,4-dihydroxy-6-[3,4,5-trihydroxy-6-(hydroxymethyl)oxan-2-yl]oxyphenyl]-2-methylbutan-1-one

> <PUBCHEM_IUPAC_OPENEYE_NAME>
1-[2,4-dihydroxy-6-[3,4,5-trihydroxy-6-(hydroxymethyl)tetrahydropyran-2-yl]oxy-phenyl]-2-methyl-butan-1-one

> <PUBCHEM_IUPAC_SYSTEMATIC_NAME>
1-[2-[6-(hydroxymethyl)-3,4,5-tris(oxidanyl)oxan-2-yl]oxy-4,6-bis(oxidanyl)phenyl]-2-methyl-butan-1-one

> <PUBCHEM_IUPAC_TRADITIONAL_NAME>
1-[2,4-dihydroxy-6-(3,4,5-trihydroxy-6-methylol-tetrahydropyran-2-yl)oxy-phenyl]-2-methyl-butan-1-one

> <PUBCHEM_MOLECULAR_FORMULA>
C17H24O9

> <PUBCHEM_MOLECULAR_WEIGHT>
372.4

> <PUBCHEM_MONOISOTOPIC_WEIGHT>
372.14203234

> <PUBCHEM_OPENEYE_CAN_SMILES>
CCC(C)C(=O)C1=C(C=C(C=C1OC2C(C(C(C(O2)CO)O)O)O)O)O

> <PUBCHEM_OPENEYE_ISO_SMILES>
CCC(C)C(=O)C1=C(C=C(C=C1OC2C(C(C(C(O2)CO)O)O)O)O)O

> <PUBCHEM_TOTAL_CHARGE>
0

> <PUBCHEM_XLOGP3_AA>
0.7

> <RelativeEnergy>
0

> <StereoisomerIndex>
6

> <TautomerIndex>
3

> <LibDock Warning>
no hit found

> <ErrorText>
LibDock failed

$$$$
5323592
  SciTegic09112317153D

 50 51  0  0  0  0            999 V2000
   -0.3640    2.1480   -2.6190 O   0  0  0  1  0  0
   -0.2140    0.6720   -0.8220 O   0  0  0  1  0  0
   -2.1440    4.5200   -1.7150 O   0  0  0  1  0  0
   -3.9850    2.3850   -2.2650 O   0  0  0  1  0  0
   -0.8360    2.5830    0.9460 O   0  0  0  1  0  0
   -2.0080   -0.4190   -2.0970 O   0  0  0  1  0  0
   -0.5350   -0.1790    1.5560 O   0  0  0  1  0  0
    2.9970   -2.5220    1.1400 O   0  0  0  1  0  0
    3.5260   -0.7960   -3.1160 O   0  0  0  1  0  0
   -2.1910    3.3480   -0.9160 C   0  0  1  1  0  0
   -2.6810    2.1560   -1.7620 C   0  0  2  1  0  0
   -0.7580    3.0490   -0.3900 C   0  0  2  1  0  0
   -1.7150    1.7980   -2.9250 C   0  0  2  1  0  0
    0.0170    2.0110   -1.2540 C   0  0  2  1  0  0
   -1.7570    0.3080   -3.2780 C   0  0  0  1  0  0
    0.8900   -0.0700   -0.8570 C   0  0  0  1  0  0
    1.3080   -0.9100    0.3070 C   0  0  0  1  0  0
    0.9630   -1.7530    2.6370 C   0  0  1  1  0  0
    0.5680   -0.9150    1.4480 C   0  0  0  1  0  0
    1.6320   -0.0450   -1.9840 C   0  0  0  1  0  0
    2.2280   -1.2320    3.3240 C   0  0  0  1  0  0
    2.5540   -1.7280    0.1660 C   0  0  0  1  0  0
   -0.1940   -1.9610    3.6140 C   0  0  0  1  0  0
    2.8630   -0.8370   -2.1070 C   0  0  0  1  0  0
    3.2740   -1.6800   -0.9730 C   0  0  0  1  0  0
    2.9620   -2.3180    4.1110 C   0  0  0  1  0  0
   -2.8870    3.5630   -0.1020 H   0  0  0  1  0  0
   -2.7710    1.2960   -1.0970 H   0  0  0  1  0  0
   -0.1770    3.9710   -0.3320 H   0  0  0  1  0  0
   -1.9590    2.3740   -3.8200 H   0  0  0  1  0  0
    1.0900    2.1960   -1.1810 H   0  0  0  1  0  0
   -0.7990   -0.0200   -3.6800 H   0  0  0  1  0  0
   -2.5640    0.1000   -3.9810 H   0  0  0  1  0  0
    1.1750   -2.6700    2.0880 H   0  0  0  1  0  0
    1.3180    0.5690   -2.8150 H   0  0  0  1  0  0
    2.8940   -0.7640    2.5980 H   0  0  0  1  0  0
    1.9950   -0.3820    3.9640 H   0  0  0  1  0  0
   -0.4790   -1.0340    4.1120 H   0  0  0  1  0  0
    0.0780   -2.6820    4.3860 H   0  0  0  1  0  0
   -1.0720   -2.3450    3.0960 H   0  0  0  1  0  0
    4.1730   -2.2750   -1.0600 H   0  0  0  1  0  0
    3.8950   -1.9310    4.5200 H   0  0  0  1  0  0
    2.3430   -2.6880    4.9260 H   0  0  0  1  0  0
    3.2050   -3.1630    3.4660 H   0  0  0  1  0  0
   -3.0570    4.8360   -1.8110 H   0  0  0  1  0  0
   -4.2910    1.5520   -2.6570 H   0  0  0  1  0  0
    0.0710    2.5260    1.2830 H   0  0  0  1  0  0
   -2.0300   -1.3590   -2.3360 H   0  0  0  1  0  0
    3.8050   -3.0320    1.0020 H   0  0  0  1  0  0
   -1.2060   -0.2260    0.8600 H   0  0  0  1  0  0
  1 13  1  0
  1 14  1  0
  2 14  1  0
  2 16  1  0
  3 10  1  0
  3 45  1  0
  4 11  1  0
  4 46  1  0
  5 12  1  0
  5 47  1  0
  6 15  1  0
  6 48  1  0
  7 19  1  0
  7 50  1  0
  8 22  1  0
  8 49  1  0
  9 24  2  0
 10 11  1  0
 10 12  1  0
 10 27  1  0
 11 13  1  0
 11 28  1  0
 12 14  1  0
 12 29  1  0
 13 15  1  0
 13 30  1  0
 14 31  1  0
 15 32  1  0
 15 33  1  0
 16 17  1  0
 16 20  2  0
 17 19  2  0
 17 22  1  0
 18 19  1  0
 18 21  1  0
 18 23  1  0
 18 34  1  0
 20 24  1  0
 20 35  1  0
 21 26  1  0
 21 36  1  0
 21 37  1  0
 22 25  2  0
 23 38  1  0
 23 39  1  0
 23 40  1  0
 24 25  1  0
 25 41  1  0
 26 42  1  0
 26 43  1  0
 26 44  1  0
M  END
> <Name>
5323592

> <AbsoluteEnergy>
57.4398

> <ConfNumber>
1

> <Ionization pH>
6.53_PP

> <IonizationIndex>
1

> <NumberOfIonizations>
2

> <NumberOfStereoisomers>
64

> <NumberOfTautomers>
3

> <OBJECTID>
9223373312463405069

> <PUBCHEM_ATOM_DEF_STEREO_COUNT>
0

> <PUBCHEM_ATOM_UDEF_STEREO_COUNT>
6

> <PUBCHEM_BONDANNOTATIONS>
13  15  3
16  17  8
16  20  8
17  22  8
18  23  3
14  2  3
20  24  8
22  25  8
24  25  8
10  3  3
11  4  3
12  5  3

> <PUBCHEM_BOND_DEF_STEREO_COUNT>
0

> <PUBCHEM_BOND_UDEF_STEREO_COUNT>
0

> <PUBCHEM_CACTVS_COMPLEXITY>
473

> <PUBCHEM_CACTVS_HBOND_ACCEPTOR>
9

> <PUBCHEM_CACTVS_HBOND_DONOR>
6

> <PUBCHEM_CACTVS_ROTATABLE_BOND>
6

> <PUBCHEM_CACTVS_SUBSKEYS>
AAADceB4PAAAAAAAAAAAAAAAAAAAAAAAAAA0QAAAAAAAAAABAAAAGgAACAAADRSwmAMyDoAABgCIAqBSAAACCAAkIAAAiAEGCMgdNzaGNRqieWCl4BUPuQfI7OzOIAAACAAIAABAAAAQABAAAAAAAAAAAA==

> <PUBCHEM_CACTVS_TAUTO_COUNT>
-1

> <PUBCHEM_CACTVS_TPSA>
157

> <PUBCHEM_COMPONENT_COUNT>
1

> <PUBCHEM_COMPOUND_CANONICALIZED>
1

> <PUBCHEM_COMPOUND_CID>
5323592

> <PUBCHEM_COORDINATE_TYPE>
1
5
255

> <PUBCHEM_EXACT_MASS>
372.14203234

> <PUBCHEM_HEAVY_ATOM_COUNT>
26

> <PUBCHEM_ISOTOPIC_ATOM_COUNT>
0

> <PUBCHEM_IUPAC_CAS_NAME>
1-[2,4-dihydroxy-6-[[3,4,5-trihydroxy-6-(hydroxymethyl)-2-oxanyl]oxy]phenyl]-2-methyl-1-butanone

> <PUBCHEM_IUPAC_INCHI>
InChI=1S/C17H24O9/c1-3-7(2)13(21)12-9(20)4-8(19)5-10(12)25-17-16(24)15(23)14(22)11(6-18)26-17/h4-5,7,11,14-20,22-24H,3,6H2,1-2H3

> <PUBCHEM_IUPAC_INCHIKEY>
MMJKSUJYDHTZJV-UHFFFAOYSA-N

> <PUBCHEM_IUPAC_NAME>
1-[2,4-dihydroxy-6-[3,4,5-trihydroxy-6-(hydroxymethyl)oxan-2-yl]oxyphenyl]-2-methylbutan-1-one

> <PUBCHEM_IUPAC_NAME_MARKUP>
1-[2,4-dihydroxy-6-[3,4,5-trihydroxy-6-(hydroxymethyl)oxan-2-yl]oxyphenyl]-2-methylbutan-1-one

> <PUBCHEM_IUPAC_OPENEYE_NAME>
1-[2,4-dihydroxy-6-[3,4,5-trihydroxy-6-(hydroxymethyl)tetrahydropyran-2-yl]oxy-phenyl]-2-methyl-butan-1-one

> <PUBCHEM_IUPAC_SYSTEMATIC_NAME>
1-[2-[6-(hydroxymethyl)-3,4,5-tris(oxidanyl)oxan-2-yl]oxy-4,6-bis(oxidanyl)phenyl]-2-methyl-butan-1-one

> <PUBCHEM_IUPAC_TRADITIONAL_NAME>
1-[2,4-dihydroxy-6-(3,4,5-trihydroxy-6-methylol-tetrahydropyran-2-yl)oxy-phenyl]-2-methyl-butan-1-one

> <PUBCHEM_MOLECULAR_FORMULA>
C17H24O9

> <PUBCHEM_MOLECULAR_WEIGHT>
372.4

> <PUBCHEM_MONOISOTOPIC_WEIGHT>
372.14203234

> <PUBCHEM_OPENEYE_CAN_SMILES>
CCC(C)C(=O)C1=C(C=C(C=C1OC2C(C(C(C(O2)CO)O)O)O)O)O

> <PUBCHEM_OPENEYE_ISO_SMILES>
CCC(C)C(=O)C1=C(C=C(C=C1OC2C(C(C(C(O2)CO)O)O)O)O)O

> <PUBCHEM_TOTAL_CHARGE>
0

> <PUBCHEM_XLOGP3_AA>
0.7

> <RelativeEnergy>
0

> <StereoisomerIndex>
31

> <TautomerIndex>
3

> <LibDock Warning>
no hit found

> <ErrorText>
LibDock failed

$$$$
5323592
  SciTegic09112317153D

 49 50  0  0  0  0            999 V2000
    0.5010    2.4000    1.0690 O   0  0  0  1  0  0
   -1.4350    1.1910    0.6450 O   0  0  0  1  0  0
    1.1970    0.6830    4.7610 O   0  0  0  1  0  0
    2.7020    0.3050    2.3260 O   0  0  0  1  0  0
   -0.3070   -0.6290    2.8290 O   0  0  0  1  0  0
    2.3700    0.7920   -0.2320 O   0  0  0  1  0  0
   -1.1900    1.2730   -2.1470 O   0  0  0  1  0  0
   -2.5050   -2.3820   -2.3370 O   0  5  0  1  0  0
   -4.2000   -2.3400    2.0990 O   0  0  0  1  0  0
    0.9240    1.3910    3.5610 C   0  0  1  1  0  0
    2.1910    1.5760    2.6970 C   0  0  2  1  0  0
   -0.2450    0.7840    2.7260 C   0  0  1  1  0  0
    1.8830    2.4370    1.4310 C   0  0  1  1  0  0
   -0.1340    1.1380    1.2180 C   0  0  2  1  0  0
    2.7150    2.0950    0.1830 C   0  0  0  1  0  0
   -2.0470    0.0510    0.3940 C   0  0  0  1  0  0
   -1.9390   -0.5590   -0.8710 C   0  0  0  1  0  0
   -0.2140   -0.7920   -2.7660 C   0  0  1  1  0  0
   -1.1210    0.0840   -1.9450 C   0  0  0  1  0  0
   -2.8170   -0.5600    1.4010 C   0  0  0  1  0  0
    0.7430    0.0170   -3.6430 C   0  0  0  1  0  0
   -2.6010   -1.7790   -1.1210 C   0  0  0  1  0  0
    0.5070   -1.8420   -1.9190 C   0  0  0  1  0  0
   -3.4810   -1.7740    1.1520 C   0  0  0  1  0  0
   -3.3700   -2.3810   -0.1100 C   0  0  0  1  0  0
    1.3970   -0.8270   -4.7370 C   0  0  0  1  0  0
    0.6130    2.3840    3.8850 H   0  0  0  1  0  0
    2.9750    2.0610    3.2770 H   0  0  0  1  0  0
   -1.1860    1.1630    3.1300 H   0  0  0  1  0  0
    2.0750    3.4820    1.6720 H   0  0  0  1  0  0
    0.4470    0.4070    0.6530 H   0  0  0  1  0  0
    3.7790    2.1080    0.4150 H   0  0  0  1  0  0
    2.4870    2.7840   -0.6300 H   0  0  0  1  0  0
   -0.9920   -1.2560   -3.3730 H   0  0  0  1  0  0
   -2.9000   -0.0900    2.3700 H   0  0  0  1  0  0
    0.2330    0.8790   -4.0720 H   0  0  0  1  0  0
    1.4990    0.5110   -3.0320 H   0  0  0  1  0  0
    1.1100   -2.5130   -2.5280 H   0  0  0  1  0  0
   -0.2100   -2.4480   -1.3640 H   0  0  0  1  0  0
    1.1690   -1.3650   -1.1960 H   0  0  0  1  0  0
   -3.8770   -3.3150   -0.3040 H   0  0  0  1  0  0
    2.0100   -0.2040   -5.3890 H   0  0  0  1  0  0
    2.0230   -1.6060   -4.3000 H   0  0  0  1  0  0
    0.6420   -1.3130   -5.3520 H   0  0  0  1  0  0
    1.8430    1.2050    5.2610 H   0  0  0  1  0  0
    3.1450   -0.0630    3.1060 H   0  0  0  1  0  0
   -0.7060   -0.8360    3.6880 H   0  0  0  1  0  0
    2.9240    0.5840   -1.0010 H   0  0  0  1  0  0
   -4.2670   -1.9120    2.9620 H   0  0  0  1  0  0
  1 13  1  0
  1 14  1  0
  2 14  1  0
  2 16  1  0
  3 10  1  0
  3 45  1  0
  4 11  1  0
  4 46  1  0
  5 12  1  0
  5 47  1  0
  6 15  1  0
  6 48  1  0
  7 19  2  0
  8 22  1  0
  9 24  1  0
  9 49  1  0
 10 11  1  0
 10 12  1  0
 10 27  1  0
 11 13  1  0
 11 28  1  0
 12 14  1  0
 12 29  1  0
 13 15  1  0
 13 30  1  0
 14 31  1  0
 15 32  1  0
 15 33  1  0
 16 17  2  0
 16 20  1  0
 17 19  1  0
 17 22  1  0
 18 19  1  0
 18 21  1  0
 18 23  1  0
 18 34  1  0
 20 24  2  0
 20 35  1  0
 21 26  1  0
 21 36  1  0
 21 37  1  0
 22 25  2  0
 23 38  1  0
 23 39  1  0
 23 40  1  0
 24 25  1  0
 25 41  1  0
 26 42  1  0
 26 43  1  0
 26 44  1  0
M  CHG  1   8  -1
M  END
> <Name>
5323592

> <AbsoluteEnergy>
43.791

> <ConfNumber>
1

> <Ionization pH>
6.53_DP

> <IonizationIndex>
2

> <NumberOfIonizations>
2

> <NumberOfStereoisomers>
64

> <NumberOfTautomers>
2

> <OBJECTID>
9223373535801704461

> <PUBCHEM_ATOM_DEF_STEREO_COUNT>
0

> <PUBCHEM_ATOM_UDEF_STEREO_COUNT>
6

> <PUBCHEM_BONDANNOTATIONS>
13  15  3
16  17  8
16  20  8
17  22  8
18  23  3
14  2  3
20  24  8
22  25  8
24  25  8
10  3  3
11  4  3
12  5  3

> <PUBCHEM_BOND_DEF_STEREO_COUNT>
0

> <PUBCHEM_BOND_UDEF_STEREO_COUNT>
0

> <PUBCHEM_CACTVS_COMPLEXITY>
473

> <PUBCHEM_CACTVS_HBOND_ACCEPTOR>
9

> <PUBCHEM_CACTVS_HBOND_DONOR>
6

> <PUBCHEM_CACTVS_ROTATABLE_BOND>
6

> <PUBCHEM_CACTVS_SUBSKEYS>
AAADceB4PAAAAAAAAAAAAAAAAAAAAAAAAAA0QAAAAAAAAAABAAAAGgAACAAADRSwmAMyDoAABgCIAqBSAAACCAAkIAAAiAEGCMgdNzaGNRqieWCl4BUPuQfI7OzOIAAACAAIAABAAAAQABAAAAAAAAAAAA==

> <PUBCHEM_CACTVS_TAUTO_COUNT>
-1

> <PUBCHEM_CACTVS_TPSA>
157

> <PUBCHEM_COMPONENT_COUNT>
1

> <PUBCHEM_COMPOUND_CANONICALIZED>
1

> <PUBCHEM_COMPOUND_CID>
5323592

> <PUBCHEM_COORDINATE_TYPE>
1
5
255

> <PUBCHEM_EXACT_MASS>
372.14203234

> <PUBCHEM_HEAVY_ATOM_COUNT>
26

> <PUBCHEM_ISOTOPIC_ATOM_COUNT>
0

> <PUBCHEM_IUPAC_CAS_NAME>
1-[2,4-dihydroxy-6-[[3,4,5-trihydroxy-6-(hydroxymethyl)-2-oxanyl]oxy]phenyl]-2-methyl-1-butanone

> <PUBCHEM_IUPAC_INCHI>
InChI=1S/C17H24O9/c1-3-7(2)13(21)12-9(20)4-8(19)5-10(12)25-17-16(24)15(23)14(22)11(6-18)26-17/h4-5,7,11,14-20,22-24H,3,6H2,1-2H3

> <PUBCHEM_IUPAC_INCHIKEY>
MMJKSUJYDHTZJV-UHFFFAOYSA-N

> <PUBCHEM_IUPAC_NAME>
1-[2,4-dihydroxy-6-[3,4,5-trihydroxy-6-(hydroxymethyl)oxan-2-yl]oxyphenyl]-2-methylbutan-1-one

> <PUBCHEM_IUPAC_NAME_MARKUP>
1-[2,4-dihydroxy-6-[3,4,5-trihydroxy-6-(hydroxymethyl)oxan-2-yl]oxyphenyl]-2-methylbutan-1-one

> <PUBCHEM_IUPAC_OPENEYE_NAME>
1-[2,4-dihydroxy-6-[3,4,5-trihydroxy-6-(hydroxymethyl)tetrahydropyran-2-yl]oxy-phenyl]-2-methyl-butan-1-one

> <PUBCHEM_IUPAC_SYSTEMATIC_NAME>
1-[2-[6-(hydroxymethyl)-3,4,5-tris(oxidanyl)oxan-2-yl]oxy-4,6-bis(oxidanyl)phenyl]-2-methyl-butan-1-one

> <PUBCHEM_IUPAC_TRADITIONAL_NAME>
1-[2,4-dihydroxy-6-(3,4,5-trihydroxy-6-methylol-tetrahydropyran-2-yl)oxy-phenyl]-2-methyl-butan-1-one

> <PUBCHEM_MOLECULAR_FORMULA>
C17H24O9

> <PUBCHEM_MOLECULAR_WEIGHT>
372.4

> <PUBCHEM_MONOISOTOPIC_WEIGHT>
372.14203234

> <PUBCHEM_OPENEYE_CAN_SMILES>
CCC(C)C(=O)C1=C(C=C(C=C1OC2C(C(C(C(O2)CO)O)O)O)O)O

> <PUBCHEM_OPENEYE_ISO_SMILES>
CCC(C)C(=O)C1=C(C=C(C=C1OC2C(C(C(C(O2)CO)O)O)O)O)O

> <PUBCHEM_TOTAL_CHARGE>
0

> <PUBCHEM_XLOGP3_AA>
0.7

> <RelativeEnergy>
0

> <StereoisomerIndex>
19

> <TautomerIndex>
1

> <LibDock Warning>
no hit found

> <ErrorText>
LibDock failed

$$$$
5323592
  SciTegic09112317153D

 49 50  0  0  0  0            999 V2000
   -2.3660    1.6780    0.3530 O   0  0  0  1  0  0
   -0.6560    0.2960   -0.4260 O   0  0  0  1  0  0
   -4.4660   -1.6920   -0.9770 O   0  0  0  1  0  0
   -5.1170    0.6060    0.5990 O   0  0  0  1  0  0
   -3.8410    0.8740   -2.0920 O   0  0  0  1  0  0
   -2.1440    1.9190    3.3820 O   0  0  0  1  0  0
    0.8490   -1.7330   -0.7420 O   0  0  0  1  0  0
    4.1360    0.9150   -0.9040 O   0  5  0  1  0  0
    1.3790    4.4480   -0.2440 O   0  0  0  1  0  0
   -3.4510   -0.8770   -0.4170 C   0  0  2  1  0  0
   -3.9340   -0.1370    0.8550 C   0  0  1  1  0  0
   -2.8410    0.0920   -1.4580 C   0  0  2  1  0  0
   -2.8230    0.8060    1.3840 C   0  0  2  1  0  0
   -1.8130    1.0370   -0.7940 C   0  0  1  1  0  0
   -3.2670    1.6740    2.5660 C   0  0  0  1  0  0
    0.4540    1.0300   -0.4750 C   0  0  0  1  0  0
    1.7990    0.4090   -0.6750 C   0  0  0  1  0  0
    3.2590   -1.5960   -1.0040 C   0  0  1  1  0  0
    1.9160   -0.9390   -0.7990 C   0  0  0  1  0  0
    0.3310    2.3670   -0.3360 C   0  0  0  1  0  0
    4.0970   -1.6260    0.2750 C   0  0  0  1  0  0
    2.9850    1.3210   -0.7300 C   0  0  0  1  0  0
    3.1420   -2.9710   -1.6640 C   0  0  0  1  0  0
    1.5040    3.2520   -0.3770 C   0  0  0  1  0  0
    2.8320    2.6550   -0.5880 C   0  0  0  1  0  0
    5.2090   -2.6730    0.2290 C   0  0  0  1  0  0
   -2.6620   -1.5670   -0.1130 H   0  0  0  1  0  0
   -4.1880   -0.8640    1.6270 H   0  0  0  1  0  0
   -2.3540   -0.4750   -2.2520 H   0  0  0  1  0  0
   -1.9710    0.2060    1.7090 H   0  0  0  1  0  0
   -1.4930    1.8140   -1.4880 H   0  0  0  1  0  0
   -4.0160    1.1560    3.1650 H   0  0  0  1  0  0
   -3.6490    2.6350    2.2180 H   0  0  0  1  0  0
    3.6570   -0.8640   -1.7070 H   0  0  0  1  0  0
   -0.6500    2.8000   -0.1910 H   0  0  0  1  0  0
    4.5060   -0.6370    0.4900 H   0  0  0  1  0  0
    3.4610   -1.7750    1.1490 H   0  0  0  1  0  0
    2.9180   -3.7510   -0.9370 H   0  0  0  1  0  0
    4.0740   -3.2380   -2.1630 H   0  0  0  1  0  0
    2.3500   -2.9730   -2.4120 H   0  0  0  1  0  0
    3.6930    3.3060   -0.6270 H   0  0  0  1  0  0
    4.7900   -3.6750    0.1500 H   0  0  0  1  0  0
    5.8700   -2.4940   -0.6180 H   0  0  0  1  0  0
    5.8130   -2.6340    1.1380 H   0  0  0  1  0  0
   -4.6970   -2.3590   -0.3130 H   0  0  0  1  0  0
   -5.5990    0.6750    1.4390 H   0  0  0  1  0  0
   -3.4260    1.2990   -2.8610 H   0  0  0  1  0  0
   -2.4420    2.4690    4.1230 H   0  0  0  1  0  0
    0.9720   -2.6900   -0.7070 H   0  0  0  1  0  0
  1 13  1  0
  1 14  1  0
  2 14  1  0
  2 16  1  0
  3 10  1  0
  3 45  1  0
  4 11  1  0
  4 46  1  0
  5 12  1  0
  5 47  1  0
  6 15  1  0
  6 48  1  0
  7 19  1  0
  7 49  1  0
  8 22  1  0
  9 24  2  0
 10 11  1  0
 10 12  1  0
 10 27  1  0
 11 13  1  0
 11 28  1  0
 12 14  1  0
 12 29  1  0
 13 15  1  0
 13 30  1  0
 14 31  1  0
 15 32  1  0
 15 33  1  0
 16 17  1  0
 16 20  2  0
 17 19  2  0
 17 22  1  0
 18 19  1  0
 18 21  1  0
 18 23  1  0
 18 34  1  0
 20 24  1  0
 20 35  1  0
 21 26  1  0
 21 36  1  0
 21 37  1  0
 22 25  2  0
 23 38  1  0
 23 39  1  0
 23 40  1  0
 24 25  1  0
 25 41  1  0
 26 42  1  0
 26 43  1  0
 26 44  1  0
M  CHG  1   8  -1
M  END
> <Name>
5323592

> <AbsoluteEnergy>
48.9662

> <ConfNumber>
1

> <Ionization pH>
6.53_DP

> <IonizationIndex>
2

> <NumberOfIonizations>
2

> <NumberOfStereoisomers>
64

> <NumberOfTautomers>
2

> <OBJECTID>
9223373789204774925

> <PUBCHEM_ATOM_DEF_STEREO_COUNT>
0

> <PUBCHEM_ATOM_UDEF_STEREO_COUNT>
6

> <PUBCHEM_BONDANNOTATIONS>
13  15  3
16  17  8
16  20  8
17  22  8
18  23  3
14  2  3
20  24  8
22  25  8
24  25  8
10  3  3
11  4  3
12  5  3

> <PUBCHEM_BOND_DEF_STEREO_COUNT>
0

> <PUBCHEM_BOND_UDEF_STEREO_COUNT>
0

> <PUBCHEM_CACTVS_COMPLEXITY>
473

> <PUBCHEM_CACTVS_HBOND_ACCEPTOR>
9

> <PUBCHEM_CACTVS_HBOND_DONOR>
6

> <PUBCHEM_CACTVS_ROTATABLE_BOND>
6

> <PUBCHEM_CACTVS_SUBSKEYS>
AAADceB4PAAAAAAAAAAAAAAAAAAAAAAAAAA0QAAAAAAAAAABAAAAGgAACAAADRSwmAMyDoAABgCIAqBSAAACCAAkIAAAiAEGCMgdNzaGNRqieWCl4BUPuQfI7OzOIAAACAAIAABAAAAQABAAAAAAAAAAAA==

> <PUBCHEM_CACTVS_TAUTO_COUNT>
-1

> <PUBCHEM_CACTVS_TPSA>
157

> <PUBCHEM_COMPONENT_COUNT>
1

> <PUBCHEM_COMPOUND_CANONICALIZED>
1

> <PUBCHEM_COMPOUND_CID>
5323592

> <PUBCHEM_COORDINATE_TYPE>
1
5
255

> <PUBCHEM_EXACT_MASS>
372.14203234

> <PUBCHEM_HEAVY_ATOM_COUNT>
26

> <PUBCHEM_ISOTOPIC_ATOM_COUNT>
0

> <PUBCHEM_IUPAC_CAS_NAME>
1-[2,4-dihydroxy-6-[[3,4,5-trihydroxy-6-(hydroxymethyl)-2-oxanyl]oxy]phenyl]-2-methyl-1-butanone

> <PUBCHEM_IUPAC_INCHI>
InChI=1S/C17H24O9/c1-3-7(2)13(21)12-9(20)4-8(19)5-10(12)25-17-16(24)15(23)14(22)11(6-18)26-17/h4-5,7,11,14-20,22-24H,3,6H2,1-2H3

> <PUBCHEM_IUPAC_INCHIKEY>
MMJKSUJYDHTZJV-UHFFFAOYSA-N

> <PUBCHEM_IUPAC_NAME>
1-[2,4-dihydroxy-6-[3,4,5-trihydroxy-6-(hydroxymethyl)oxan-2-yl]oxyphenyl]-2-methylbutan-1-one

> <PUBCHEM_IUPAC_NAME_MARKUP>
1-[2,4-dihydroxy-6-[3,4,5-trihydroxy-6-(hydroxymethyl)oxan-2-yl]oxyphenyl]-2-methylbutan-1-one

> <PUBCHEM_IUPAC_OPENEYE_NAME>
1-[2,4-dihydroxy-6-[3,4,5-trihydroxy-6-(hydroxymethyl)tetrahydropyran-2-yl]oxy-phenyl]-2-methyl-butan-1-one

> <PUBCHEM_IUPAC_SYSTEMATIC_NAME>
1-[2-[6-(hydroxymethyl)-3,4,5-tris(oxidanyl)oxan-2-yl]oxy-4,6-bis(oxidanyl)phenyl]-2-methyl-butan-1-one

> <PUBCHEM_IUPAC_TRADITIONAL_NAME>
1-[2,4-dihydroxy-6-(3,4,5-trihydroxy-6-methylol-tetrahydropyran-2-yl)oxy-phenyl]-2-methyl-butan-1-one

> <PUBCHEM_MOLECULAR_FORMULA>
C17H24O9

> <PUBCHEM_MOLECULAR_WEIGHT>
372.4

> <PUBCHEM_MONOISOTOPIC_WEIGHT>
372.14203234

> <PUBCHEM_OPENEYE_CAN_SMILES>
CCC(C)C(=O)C1=C(C=C(C=C1OC2C(C(C(C(O2)CO)O)O)O)O)O

> <PUBCHEM_OPENEYE_ISO_SMILES>
CCC(C)C(=O)C1=C(C=C(C=C1OC2C(C(C(C(O2)CO)O)O)O)O)O

> <PUBCHEM_TOTAL_CHARGE>
0

> <PUBCHEM_XLOGP3_AA>
0.7

> <RelativeEnergy>
0

> <StereoisomerIndex>
14

> <TautomerIndex>
2

> <LibDock Warning>
no hit found

> <ErrorText>
LibDock failed

$$$$
6918840
  SciTegic09112317153D

137144  0  0  0  0            999 V2000
   -2.4350   -0.3220    0.1490 O   0  0  0  1  0  0
    6.6870   -1.7480   -0.4090 O   0  0  0  1  0  0
    5.3820   -1.5140   -2.2160 O   0  0  0  1  0  0
   -3.2960   -1.0940    2.2180 O   0  0  0  1  0  0
   -5.1100    1.2820    1.9950 O   0  0  0  1  0  0
   -5.2710   -0.9890   -0.8110 O   0  0  0  1  0  0
    7.9930   -3.5630   -1.1300 O   0  0  0  1  0  0
   -6.2340   -1.4320    2.6470 O   0  0  0  1  0  0
   10.2050   -1.5680   -1.3220 O   0  0  0  1  0  0
   -3.5420    2.6700    2.9510 O   0  0  0  1  0  0
   -2.0930   -3.2740    1.0900 O   0  0  0  1  0  0
    8.5640   -1.6880    1.8980 O   0  0  0  1  0  0
   -7.1560   -0.4430   -2.0130 O   0  0  0  1  0  0
   10.5990   -4.1450    0.1970 O   0  0  0  1  0  0
   -6.8250    3.5840    1.6030 O   0  0  0  1  0  0
   -3.5870   -0.0240   -2.9040 O   0  0  0  1  0  0
   -6.2310    5.7850    3.4080 O   0  0  0  1  0  0
    5.8220   -4.5520    0.1700 O   0  0  0  1  0  0
   -3.3720    6.2360    3.6870 O   0  0  0  1  0  0
   -5.2430    0.1460   -5.4940 O   0  0  0  1  0  0
   -7.1880    2.1870   -3.3370 O   0  0  0  1  0  0
   -0.7410    3.0360    3.2960 O   0  0  0  1  0  0
   -8.7520   -2.2940   -3.6200 O   0  0  0  1  0  0
    1.0420    0.1240   -0.8060 C   0  0  2  1  0  0
    1.7780    0.1700    0.5770 C   0  0  2  1  0  0
    3.2640   -0.2910    0.4920 C   0  0  1  1  0  0
    3.9650    0.5290   -0.6330 C   0  0  2  1  0  0
   -0.2290   -0.7570   -0.7530 C   0  0  0  1  0  0
   -1.0730    0.0460    0.2490 C   0  0  2  1  0  0
    1.9190   -0.3220   -1.9860 C   0  0  0  1  0  0
    0.9630   -0.5490    1.6820 C   0  0  0  1  0  0
    0.3960    1.4970   -1.0840 C   0  0  0  1  0  0
    3.2620    0.4180   -2.0120 C   0  0  0  1  0  0
    5.5040    0.3180   -0.7160 C   0  0  2  1  0  0
    3.9780   -0.0180    1.8370 C   0  0  0  1  0  0
   -0.5420   -0.1990    1.6770 C   0  0  0  1  0  0
   -0.8310    1.4560   -0.2220 C   0  0  0  1  0  0
    3.3350   -1.8000    0.2120 C   0  0  0  1  0  0
    6.1460    0.5620    0.6630 C   0  0  0  1  0  0
    5.4900   -0.2670    1.7740 C   0  0  0  1  0  0
    6.1150    1.2970   -1.7250 C   0  0  0  1  0  0
    5.8490   -1.0740   -1.1940 C   0  0  0  1  0  0
   -1.5840    2.5280    0.0820 C   0  0  0  1  0  0
   -3.1850    0.0000    1.3040 C   0  0  2  1  0  0
   -4.5780    0.5570    0.9020 C   0  0  1  1  0  0
   -5.5840   -0.5450    0.4960 C   0  0  2  1  0  0
    7.8690   -2.1430   -1.0950 C   0  0  2  1  0  0
   -4.1010   -2.2050    1.8120 C   0  0  1  1  0  0
   -5.5400   -1.7590    1.4540 C   0  0  1  1  0  0
    9.1030   -1.4810   -0.4350 C   0  0  1  1  0  0
   -3.4080   -2.9730    0.6790 C   0  0  0  1  0  0
   -4.6480    2.6160    2.0580 C   0  0  2  1  0  0
    9.4820   -2.1280    0.9160 C   0  0  2  1  0  0
    8.1830   -4.2200    0.1240 C   0  0  1  1  0  0
    9.4370   -3.6730    0.8550 C   0  0  1  1  0  0
   -5.7720   -0.1380   -1.8240 C   0  0  2  1  0  0
   -5.7730    3.5580    2.5560 C   0  0  1  1  0  0
   -4.9620   -0.2860   -3.1370 C   0  0  1  1  0  0
    6.9040   -4.1210    0.9630 C   0  0  0  1  0  0
   -5.2400    4.9920    2.7730 C   0  0  2  1  0  0
   -2.9330    3.9480    3.0820 C   0  0  1  1  0  0
   -3.9650    4.9510    3.6430 C   0  0  1  1  0  0
   -5.4830    0.7020   -4.2140 C   0  0  2  1  0  0
   -7.7220   -0.1670   -3.2950 C   0  0  1  1  0  0
   -7.0000    0.9760   -4.0480 C   0  0  1  1  0  0
   -1.7170    3.7720    3.9970 C   0  0  0  1  0  0
   -7.7030   -1.4790   -4.0890 C   0  0  0  1  0  0
    1.8200    1.2130    0.8990 H   0  0  0  1  0  0
    3.8360    1.5730   -0.3350 H   0  0  0  1  0  0
   -0.0340   -1.7710   -0.4360 H   0  0  0  1  0  0
   -0.7040   -0.8110   -1.7250 H   0  0  0  1  0  0
    2.0980   -1.3950   -1.9270 H   0  0  0  1  0  0
    1.3980   -0.1740   -2.9330 H   0  0  0  1  0  0
    1.3710   -0.3290    2.6700 H   0  0  0  1  0  0
    1.0660   -1.6260    1.5560 H   0  0  0  1  0  0
    1.0410    2.3280   -0.8330 H   0  0  0  1  0  0
    0.1010    1.6040   -2.1180 H   0  0  0  1  0  0
    3.1030    1.4230   -2.4060 H   0  0  0  1  0  0
    3.9030   -0.0760   -2.7400 H   0  0  0  1  0  0
    3.5570   -0.6410    2.6290 H   0  0  0  1  0  0
    3.8080    1.0160    2.1410 H   0  0  0  1  0  0
   -1.0770   -1.0190    2.1590 H   0  0  0  1  0  0
   -0.7250    0.6790    2.2980 H   0  0  0  1  0  0
    3.9870   -2.2960    0.9330 H   0  0  0  1  0  0
    2.3420   -2.2490    0.2670 H   0  0  0  1  0  0
    3.7330   -1.9890   -0.7840 H   0  0  0  1  0  0
    7.2160    0.3530    0.6300 H   0  0  0  1  0  0
    6.0560    1.6200    0.9220 H   0  0  0  1  0  0
    5.6870   -1.3260    1.6120 H   0  0  0  1  0  0
    5.9430   -0.0180    2.7340 H   0  0  0  1  0  0
    7.2020    1.2090   -1.7690 H   0  0  0  1  0  0
    5.8740    2.3250   -1.4580 H   0  0  0  1  0  0
    5.7250    1.1120   -2.7260 H   0  0  0  1  0  0
   -1.4110    3.5520   -0.2190 H   0  0  0  1  0  0
   -2.4510    2.3280    0.6940 H   0  0  0  1  0  0
   -2.6020    0.7720    1.8100 H   0  0  0  1  0  0
   -4.4770    1.2960    0.1030 H   0  0  0  1  0  0
   -6.5960   -0.1430    0.4230 H   0  0  0  1  0  0
    7.7580   -1.8030   -2.1270 H   0  0  0  1  0  0
   -4.1300   -2.8810    2.6660 H   0  0  0  1  0  0
   -6.0890   -2.6000    1.0300 H   0  0  0  1  0  0
    8.9230   -0.4120   -0.3090 H   0  0  0  1  0  0
   -3.3500   -2.3640   -0.2220 H   0  0  0  1  0  0
   -3.9230   -3.9130    0.4790 H   0  0  0  1  0  0
   -4.3000    2.8980    1.0620 H   0  0  0  1  0  0
   10.4590   -1.7780    1.2590 H   0  0  0  1  0  0
    8.3250   -5.2760   -0.1030 H   0  0  0  1  0  0
    9.4920   -4.0980    1.8600 H   0  0  0  1  0  0
   -5.7070    0.8870   -1.4540 H   0  0  0  1  0  0
   -6.1870    3.1730    3.4910 H   0  0  0  1  0  0
   -5.0330   -1.3220   -3.4800 H   0  0  0  1  0  0
   -5.0140    5.4510    1.8070 H   0  0  0  1  0  0
    6.7140   -3.0870    1.2580 H   0  0  0  1  0  0
    6.9650   -4.7690    1.8370 H   0  0  0  1  0  0
   -2.5940    4.2560    2.0910 H   0  0  0  1  0  0
   -4.2200    4.6750    4.6680 H   0  0  0  1  0  0
   -4.9290    1.6430   -4.1920 H   0  0  0  1  0  0
   -8.7680    0.0920   -3.1240 H   0  0  0  1  0  0
   -7.4800    1.1420   -5.0150 H   0  0  0  1  0  0
   -1.9870    3.2110    4.8930 H   0  0  0  1  0  0
   -1.2900    4.7390    4.2600 H   0  0  0  1  0  0
   -6.7650   -2.0100   -3.9350 H   0  0  0  1  0  0
   -7.8710   -1.2890   -5.1510 H   0  0  0  1  0  0
   -6.3370   -2.2540    3.1500 H   0  0  0  1  0  0
    9.9890   -1.0330   -2.0990 H   0  0  0  1  0  0
   -1.6700   -3.7590    0.3640 H   0  0  0  1  0  0
    8.9350   -1.9240    2.7640 H   0  0  0  1  0  0
   10.6270   -5.1070    0.3190 H   0  0  0  1  0  0
   -7.3170    2.7550    1.6970 H   0  0  0  1  0  0
   -3.1910   -0.8490   -2.5840 H   0  0  0  1  0  0
   -5.9740    6.7130    3.2920 H   0  0  0  1  0  0
    5.0110   -4.3960    0.6800 H   0  0  0  1  0  0
   -2.9050    6.3080    4.5330 H   0  0  0  1  0  0
   -5.4300    0.8400   -6.1460 H   0  0  0  1  0  0
   -8.1360    2.3930   -3.3660 H   0  0  0  1  0  0
    0.0200    2.9330    3.8900 H   0  0  0  1  0  0
   -8.7270   -3.1170   -4.1310 H   0  0  0  1  0  0
  1 29  1  0
  1 44  1  0
  2 42  1  0
  2 47  1  0
  3 42  2  0
  4 44  1  0
  4 48  1  0
  5 45  1  0
  5 52  1  0
  6 46  1  0
  6 56  1  0
  7 47  1  0
  7 54  1  0
  8 49  1  0
  8124  1  0
  9 50  1  0
  9125  1  0
 10 52  1  0
 10 61  1  0
 11 51  1  0
 11126  1  0
 12 53  1  0
 12127  1  0
 13 56  1  0
 13 64  1  0
 14 55  1  0
 14128  1  0
 15 57  1  0
 15129  1  0
 16 58  1  0
 16130  1  0
 17 60  1  0
 17131  1  0
 18 59  1  0
 18132  1  0
 19 62  1  0
 19133  1  0
 20 63  1  0
 20134  1  0
 21 65  1  0
 21135  1  0
 22 66  1  0
 22136  1  0
 23 67  1  0
 23137  1  0
 24 25  1  0
 24 28  1  0
 24 30  1  0
 24 32  1  0
 25 26  1  0
 25 31  1  0
 25 68  1  0
 26 27  1  0
 26 35  1  0
 26 38  1  0
 27 33  1  0
 27 34  1  0
 27 69  1  0
 28 29  1  0
 28 70  1  0
 28 71  1  0
 29 36  1  0
 29 37  1  0
 30 33  1  0
 30 72  1  0
 30 73  1  0
 31 36  1  0
 31 74  1  0
 31 75  1  0
 32 37  1  0
 32 76  1  0
 32 77  1  0
 33 78  1  0
 33 79  1  0
 34 39  1  0
 34 41  1  0
 34 42  1  0
 35 40  1  0
 35 80  1  0
 35 81  1  0
 36 82  1  0
 36 83  1  0
 37 43  2  0
 38 84  1  0
 38 85  1  0
 38 86  1  0
 39 40  1  0
 39 87  1  0
 39 88  1  0
 40 89  1  0
 40 90  1  0
 41 91  1  0
 41 92  1  0
 41 93  1  0
 43 94  1  0
 43 95  1  0
 44 45  1  0
 44 96  1  0
 45 46  1  0
 45 97  1  0
 46 49  1  0
 46 98  1  0
 47 50  1  0
 47 99  1  0
 48 49  1  0
 48 51  1  0
 48100  1  0
 49101  1  0
 50 53  1  0
 50102  1  0
 51103  1  0
 51104  1  0
 52 57  1  0
 52105  1  0
 53 55  1  0
 53106  1  0
 54 55  1  0
 54 59  1  0
 54107  1  0
 55108  1  0
 56 58  1  0
 56109  1  0
 57 60  1  0
 57110  1  0
 58 63  1  0
 58111  1  0
 59113  1  0
 59114  1  0
 60 62  1  0
 60112  1  0
 61 62  1  0
 61 66  1  0
 61115  1  0
 62116  1  0
 63 65  1  0
 63117  1  0
 64 65  1  0
 64 67  1  0
 64118  1  0
 65119  1  0
 66120  1  0
 66121  1  0
 67122  1  0
 67123  1  0
M  END
> <Name>
6918840

> <AbsoluteEnergy>
109.529

> <ConfNumber>
1

> <IonizationIndex>
1

> <NumberOfIonizations>
1

> <NumberOfStereoisomers>
1

> <NumberOfTautomers>
1

> <OBJECTID>
9223374021133008909

> <PUBCHEM_ATOM_DEF_STEREO_COUNT>
26

> <PUBCHEM_ATOM_UDEF_STEREO_COUNT>
0

> <PUBCHEM_BONDANNOTATIONS>
29  1  6
44  1  5
53  12  6
55  14  5
57  15  5
58  16  6
60  17  6
62  19  5
47  2  6
63  20  5
65  21  6
24  30  6
25  68  5
26  38  6
27  69  5
34  41  5
48  51  5
45  5  6
52  5  6
54  59  6
46  6  5
56  6  5
61  66  6
64  67  5
49  8  6
50  9  5

> <PUBCHEM_BOND_DEF_STEREO_COUNT>
0

> <PUBCHEM_BOND_UDEF_STEREO_COUNT>
0

> <PUBCHEM_CACTVS_COMPLEXITY>
1760

> <PUBCHEM_CACTVS_HBOND_ACCEPTOR>
23

> <PUBCHEM_CACTVS_HBOND_DONOR>
14

> <PUBCHEM_CACTVS_ROTATABLE_BOND>
13

> <PUBCHEM_CACTVS_SUBSKEYS>
AAADcfB8PgAAAAAAAAAAAAAAAAAAAYAAAAA0aNEiBgAAAADAAAAAGgAACAAAD1SwgAMCCAAABgCIAgDSCAAAAAAgAAAAAAEAAAgRFBIAIQAiQAAFgAAHIAHI6PyPgAAAAAAAAADAAAYAACAAAYAAAAAAAA==

> <PUBCHEM_CACTVS_TAUTO_COUNT>
1

> <PUBCHEM_CACTVS_TPSA>
374

> <PUBCHEM_COMPONENT_COUNT>
1

> <PUBCHEM_COMPOUND_CANONICALIZED>
1

> <PUBCHEM_COMPOUND_CID>
6918840

> <PUBCHEM_COORDINATE_TYPE>
1
5
255

> <PUBCHEM_EXACT_MASS>
966.43078848

> <PUBCHEM_HEAVY_ATOM_COUNT>
67

> <PUBCHEM_ISOTOPIC_ATOM_COUNT>
0

> <PUBCHEM_IUPAC_CAS_NAME>
(1R,4S,5R,9S,10R,13S)-13-[[(2S,3R,4S,5R,6R)-5-hydroxy-6-(hydroxymethyl)-3,4-bis[[(2S,3R,4S,5S,6R)-3,4,5-trihydroxy-6-(hydroxymethyl)-2-oxanyl]oxy]-2-oxanyl]oxy]-5,9-dimethyl-14-methylene-5-tetracyclo[
11.2.1.01,10.04,9]hexadecanecarboxylic acid [(2S,3R,4S,5S,6R)-3,4,5-trihydroxy-6-(hydroxymethyl)-2-oxanyl] ester

> <PUBCHEM_IUPAC_INCHI>
InChI=1S/C44H70O23/c1-17-11-43-9-5-22-41(2,7-4-8-42(22,3)40(59)66-38-33(58)30(55)26(51)20(14-47)62-38)23(43)6-10-44(17,16-43)67-39-35(65-37-32(57)29(54)25(50)19(13-46)61-37)34(27(52)21(15-48)63-39)64-
36-31(56)28(53)24(49)18(12-45)60-36/h18-39,45-58H,1,4-16H2,2-3H3/t18-,19-,20-,21-,22+,23+,24-,25-,26-,27-,28+,29+,30+,31-,32-,33-,34+,35-,36+,37+,38+,39+,41-,42-,43-,44+/m1/s1

> <PUBCHEM_IUPAC_INCHIKEY>
HELXLJCILKEWJH-NCGAPWICSA-N

> <PUBCHEM_IUPAC_NAME>
[(2S,3R,4S,5S,6R)-3,4,5-trihydroxy-6-(hydroxymethyl)oxan-2-yl] (1R,4S,5R,9S,10R,13S)-13-[(2S,3R,4S,5R,6R)-5-hydroxy-6-(hydroxymethyl)-3,4-bis[[(2S,3R,4S,5S,6R)-3,4,5-trihydroxy-6-(hydroxymethyl)oxan-2
-yl]oxy]oxan-2-yl]oxy-5,9-dimethyl-14-methylidenetetracyclo[11.2.1.01,10.04,9]hexadecane-5-carboxylate

> <PUBCHEM_IUPAC_NAME_MARKUP>
[(2<I>S</I>,3<I>R</I>,4<I>S</I>,5<I>S</I>,6<I>R</I>)-3,4,5-trihydroxy-6-(hydroxymethyl)oxan-2-yl] (1<I>R</I>,4<I>S</I>,5<I>R</I>,9<I>S</I>,10<I>R</I>,13<I>S</I>)-13-[(2<I>S</I>,3<I>R</I>,4<I>S</I>,5<I
>R</I>,6<I>R</I>)-5-hydroxy-6-(hydroxymethyl)-3,4-bis[[(2<I>S</I>,3<I>R</I>,4<I>S</I>,5<I>S</I>,6<I>R</I>)-3,4,5-trihydroxy-6-(hydroxymethyl)oxan-2-yl]oxy]oxan-2-yl]oxy-5,9-dimethyl-14-methylidenetetr
acyclo[11.2.1.0<SUP>1,10</SUP>.0<SUP>4,9</SUP>]hexadecane-5-carboxylate

> <PUBCHEM_IUPAC_OPENEYE_NAME>
[(2S,3R,4S,5S,6R)-3,4,5-trihydroxy-6-(hydroxymethyl)tetrahydropyran-2-yl] (1R,4S,5R,9S,10R,13S)-13-[(2S,3R,4S,5R,6R)-5-hydroxy-6-(hydroxymethyl)-3,4-bis[[(2S,3R,4S,5S,6R)-3,4,5-trihydroxy-6-(hydroxyme
thyl)tetrahydropyran-2-yl]oxy]tetrahydropyran-2-yl]oxy-5,9-dimethyl-14-methylene-tetracyclo[11.2.1.01,10.04,9]hexadecane-5-carboxylate

> <PUBCHEM_IUPAC_SYSTEMATIC_NAME>
[(2S,3R,4S,5S,6R)-6-(hydroxymethyl)-3,4,5-tris(oxidanyl)oxan-2-yl] (1R,4S,5R,9S,10R,13S)-13-[(2S,3R,4S,5R,6R)-6-(hydroxymethyl)-3,4-bis[[(2S,3R,4S,5S,6R)-6-(hydroxymethyl)-3,4,5-tris(oxidanyl)oxan-2-y
l]oxy]-5-oxidanyl-oxan-2-yl]oxy-5,9-dimethyl-14-methylidene-tetracyclo[11.2.1.01,10.04,9]hexadecane-5-carboxylate

> <PUBCHEM_IUPAC_TRADITIONAL_NAME>
(1R,4S,5R,9S,10R,13S)-13-[(2S,3R,4S,5R,6R)-5-hydroxy-6-methylol-3,4-bis[[(2S,3R,4S,5S,6R)-3,4,5-trihydroxy-6-methylol-tetrahydropyran-2-yl]oxy]tetrahydropyran-2-yl]oxy-5,9-dimethyl-14-methylene-tetrac
yclo[11.2.1.01,10.04,9]hexadecane-5-carboxylic acid [(2S,3R,4S,5S,6R)-3,4,5-trihydroxy-6-methylol-tetrahydropyran-2-yl] ester

> <PUBCHEM_MOLECULAR_FORMULA>
C44H70O23

> <PUBCHEM_MOLECULAR_WEIGHT>
967

> <PUBCHEM_MONOISOTOPIC_WEIGHT>
966.43078848

> <PUBCHEM_OPENEYE_CAN_SMILES>
CC12CCCC(C1CCC34C2CCC(C3)(C(=C)C4)OC5C(C(C(C(O5)CO)O)OC6C(C(C(C(O6)CO)O)O)O)OC7C(C(C(C(O7)CO)O)O)O)(C)C(=O)OC8C(C(C(C(O8)CO)O)O)O

> <PUBCHEM_OPENEYE_ISO_SMILES>
C[C@@]12CCC[C@@]([C@H]1CC[C@]34[C@H]2CC[C@](C3)(C(=C)C4)O[C@H]5[C@@H]([C@H]([C@@H]([C@H](O5)CO)O)O[C@H]6[C@@H]([C@H]([C@@H]([C@H](O6)CO)O)O)O)O[C@H]7[C@@H]([C@H]([C@@H]([C@H](O7)CO)O)O)O)(C)C(=O)O[C@H
]8[C@@H]([C@H]([C@@H]([C@H](O8)CO)O)O)O

> <PUBCHEM_TOTAL_CHARGE>
0

> <PUBCHEM_XLOGP3_AA>
-2.8

> <RelativeEnergy>
0

> <StereoisomerIndex>
1

> <TautomerIndex>
1

> <LibDock Warning>
no hit found

> <ErrorText>
LibDock failed

$$$$
7408474
  SciTegic09112317153D

 17 17  0  0  0  0            999 V2000
   -1.6020   -1.9230    0.2690 O   0  0  0  1  0  0
    2.3850    1.5610    0.6290 O   0  0  0  1  0  0
    0.1840    1.2540    0.4380 N   0  0  0  1  0  0
    0.5950   -1.6110    0.4710 N   0  0  0  1  0  0
   -0.9930    0.3550    0.3350 C   0  0  2  1  0  0
   -0.6890   -1.1330    0.3570 C   0  0  0  1  0  0
    1.7630   -0.7110    0.5890 C   0  0  0  1  0  0
   -1.7890    0.7130   -0.9230 C   0  0  0  1  0  0
    1.4670    0.7750    0.5540 C   0  0  0  1  0  0
   -1.6240    0.5720    1.1980 H   0  0  0  1  0  0
    2.4590   -0.9520   -0.2150 H   0  0  0  1  0  0
    2.2750   -0.9450    1.5230 H   0  0  0  1  0  0
   -2.0650    1.7660   -0.9170 H   0  0  0  1  0  0
   -1.2060    0.5020   -1.8210 H   0  0  0  1  0  0
   -2.7060    0.1280   -0.9760 H   0  0  0  1  0  0
    0.0310    2.2430    0.4240 H   0  0  0  1  0  0
    0.7530   -2.5990    0.4770 H   0  0  0  1  0  0
  1  6  2  0
  2  9  2  0
  3  5  1  0
  3  9  1  0
  3 16  1  0
  4  6  1  0
  4  7  1  0
  4 17  1  0
  5  6  1  0
  5  8  1  0
  5 10  1  0
  7  9  1  0
  7 11  1  0
  7 12  1  0
  8 13  1  0
  8 14  1  0
  8 15  1  0
M  END
> <Name>
7408474

> <AbsoluteEnergy>
5.85762

> <ConfNumber>
1

> <IonizationIndex>
1

> <NumberOfIonizations>
1

> <NumberOfStereoisomers>
1

> <NumberOfTautomers>
1

> <OBJECTID>
9223374051197779981

> <PUBCHEM_ATOM_DEF_STEREO_COUNT>
1

> <PUBCHEM_ATOM_UDEF_STEREO_COUNT>
0

> <PUBCHEM_BOND_DEF_STEREO_COUNT>
0

> <PUBCHEM_BOND_UDEF_STEREO_COUNT>
0

> <PUBCHEM_CACTVS_TAUTO_COUNT>
4

> <PUBCHEM_COMPONENT_COUNT>
1

> <PUBCHEM_COMPOUND_CID>
7408474

> <PUBCHEM_CONFORMER_DIVERSEORDER>
2
1

> <PUBCHEM_CONFORMER_ID>
00710B5A00000002

> <PUBCHEM_CONFORMER_RMSD>
0.4

> <PUBCHEM_COORDINATE_TYPE>
2
5
10

> <PUBCHEM_EFFECTIVE_ROTOR_COUNT>
0.8

> <PUBCHEM_FEATURE_SELFOVERLAP>
25.38

> <PUBCHEM_HEAVY_ATOM_COUNT>
9

> <PUBCHEM_ISOTOPIC_ATOM_COUNT>
0

> <PUBCHEM_MMFF94_ENERGY>
28.0635

> <PUBCHEM_MMFF94_PARTIAL_CHARGES>
10
1 -0.57
11 0.37
14 0.37
2 -0.57
3 -0.73
4 -0.73
5 0.36
6 0.57
7 0.36
9 0.57

> <PUBCHEM_PHARMACOPHORE_FEATURES>
5
1 1 acceptor
1 2 acceptor
1 3 donor
1 4 donor
6 3 4 5 6 7 9 rings

> <PUBCHEM_SHAPE_FINGERPRINT>
12897270 3 18411134774736368183
16714656 1 18341335603430914542
16945 1 18338233872507368874
18185500 45 18266455588745756583
21040471 1 18124311614570406377
23552423 10 18262239911073317966
2748010 2 18339364041611697302
29004967 10 18041563645153557299
5084963 1 18201726179772449552

> <PUBCHEM_SHAPE_MULTIPOLES>
163.52
2.95
1.7
0.64
0.6
0.02
-0.04
-0.58
0.21
-0.6
0.02
0.01
0
-0.26

> <PUBCHEM_SHAPE_SELFOVERLAP>
328.086

> <PUBCHEM_SHAPE_VOLUME>
95.5

> <RelativeEnergy>
0

> <StereoisomerIndex>
1

> <TautomerIndex>
1

> <LibDock Warning>
no hit found

> <ErrorText>
LibDock failed

$$$$
9799506
  SciTegic09112317153D

 49 51  0  0  0  0            999 V2000
   -3.2470    1.8280   -0.3430 O   0  0  0  1  0  0
   -4.9190   -0.2970    0.7130 O   0  0  0  1  0  0
   -1.4290   -2.4000   -1.7610 O   0  0  0  1  0  0
    1.4520    1.1060   -0.2380 O   0  0  0  1  0  0
    1.4190   -2.3210   -2.1400 O   0  0  0  1  0  0
    7.1620   -1.0390    3.8430 O   0  0  0  1  0  0
   -4.5590    1.5330   -0.8460 C   0  0  0  1  0  0
   -4.8560    0.0260   -0.6680 C   0  0  1  1  0  0
   -3.7600   -0.8280   -1.3390 C   0  0  0  1  0  0
   -2.3870   -0.3250   -1.0610 C   0  0  0  1  0  0
   -2.2030    0.9970   -0.5660 C   0  0  0  1  0  0
   -5.5610    2.4160   -0.0920 C   0  0  0  1  0  0
   -4.5920    1.9170   -2.3310 C   0  0  0  1  0  0
   -1.2600   -1.1580   -1.2850 C   0  0  0  1  0  0
   -0.8990    1.4670   -0.2850 C   0  0  0  1  0  0
    0.0420   -0.6740   -1.0050 C   0  0  0  1  0  0
    0.2240    0.6380   -0.5060 C   0  0  0  1  0  0
    1.2180   -1.5440   -1.2370 C   0  0  0  1  0  0
    2.2160   -1.3650   -0.1740 C   0  0  0  1  0  0
    2.1530    1.7720   -1.2770 C   0  0  0  1  0  0
    3.4720   -1.8100   -0.3340 C   0  0  0  1  0  0
    4.4520   -1.6060    0.7730 C   0  0  0  1  0  0
    5.7760   -2.0570    0.6360 C   0  0  0  1  0  0
    4.0510   -0.9600    1.9570 C   0  0  0  1  0  0
    6.6970   -1.8650    1.6800 C   0  0  0  1  0  0
    4.9740   -0.7680    3.0010 C   0  0  0  1  0  0
    6.2980   -1.2200    2.8660 C   0  0  0  1  0  0
   -5.8320   -0.2250   -1.0910 H   0  0  0  1  0  0
   -3.8530   -1.8730   -1.0410 H   0  0  0  1  0  0
   -3.9040   -0.8080   -2.4200 H   0  0  0  1  0  0
   -5.2720    2.5600    0.9490 H   0  0  0  1  0  0
   -6.5540    1.9660   -0.1030 H   0  0  0  1  0  0
   -5.6350    3.3990   -0.5560 H   0  0  0  1  0  0
   -3.6130    1.8220   -2.7980 H   0  0  0  1  0  0
   -4.9220    2.9470   -2.4560 H   0  0  0  1  0  0
   -5.2860    1.2790   -2.8800 H   0  0  0  1  0  0
   -0.7590    2.4680    0.0990 H   0  0  0  1  0  0
    2.0130   -0.8820    0.7700 H   0  0  0  1  0  0
    1.5590    2.6300   -1.5940 H   0  0  0  1  0  0
    3.1630    1.9870   -0.9270 H   0  0  0  1  0  0
    2.2330    1.0930   -2.1270 H   0  0  0  1  0  0
    3.8430   -2.3140   -1.2160 H   0  0  0  1  0  0
    6.0940   -2.5530   -0.2700 H   0  0  0  1  0  0
    3.0350   -0.6100    2.0720 H   0  0  0  1  0  0
    7.7120   -2.2130    1.5710 H   0  0  0  1  0  0
    4.6620   -0.2720    3.9080 H   0  0  0  1  0  0
   -5.3730   -1.1510    0.7850 H   0  0  0  1  0  0
   -2.1260   -2.5690   -2.4060 H   0  0  0  1  0  0
    6.8750   -0.5940    4.6520 H   0  0  0  1  0  0
  1  7  1  0
  1 11  1  0
  2  8  1  0
  2 47  1  0
  3 14  1  0
  3 48  1  0
  4 17  1  0
  4 20  1  0
  5 18  2  0
  6 27  1  0
  6 49  1  0
  7  8  1  0
  7 12  1  0
  7 13  1  0
  8  9  1  0
  8 28  1  0
  9 10  1  0
  9 29  1  0
  9 30  1  0
 10 11  2  0
 10 14  1  0
 11 15  1  0
 12 31  1  0
 12 32  1  0
 12 33  1  0
 13 34  1  0
 13 35  1  0
 13 36  1  0
 14 16  2  0
 15 17  2  0
 15 37  1  0
 16 17  1  0
 16 18  1  0
 18 19  1  0
 19 21  2  0
 19 38  1  0
 20 39  1  0
 20 40  1  0
 20 41  1  0
 21 22  1  0
 21 42  1  0
 22 23  2  0
 22 24  1  0
 23 25  1  0
 23 43  1  0
 24 26  2  0
 24 44  1  0
 25 27  2  0
 25 45  1  0
 26 27  1  0
 26 46  1  0
M  END
> <Name>
9799506

> <AbsoluteEnergy>
61.1911

> <ConfNumber>
1

> <Ionization pH>
7.5

> <IonizationIndex>
1

> <NumberOfIonizations>
1

> <NumberOfStereoisomers>
1

> <NumberOfTautomers>
3

> <OBJECTID>
9223374059787714573

> <PUBCHEM_ATOM_DEF_STEREO_COUNT>
0

> <PUBCHEM_ATOM_UDEF_STEREO_COUNT>
1

> <PUBCHEM_BOND_DEF_STEREO_COUNT>
1

> <PUBCHEM_BOND_UDEF_STEREO_COUNT>
0

> <PUBCHEM_CACTVS_TAUTO_COUNT>
21

> <PUBCHEM_COMPONENT_COUNT>
1

> <PUBCHEM_COMPOUND_CID>
9799506

> <PUBCHEM_CONFORMER_DIVERSEORDER>
1
26
8
20
23
24
7
10
19
18
4
12
16
28
9
11
21
3
25
2
27
22
17
5
15
13
6
14

> <PUBCHEM_CONFORMER_ID>
95875200000001

> <PUBCHEM_CONFORMER_RMSD>
0.8

> <PUBCHEM_COORDINATE_TYPE>
2
5
10

> <PUBCHEM_EFFECTIVE_ROTOR_COUNT>
4.8

> <PUBCHEM_FEATURE_SELFOVERLAP>
55.851

> <PUBCHEM_HEAVY_ATOM_COUNT>
27

> <PUBCHEM_ISOTOPIC_ATOM_COUNT>
0

> <PUBCHEM_MMFF94_ENERGY>
103.684

> <PUBCHEM_MMFF94_PARTIAL_CHARGES>
35
1 -0.36
10 -0.14
11 0.08
14 0.08
15 -0.15
16 0.09
17 0.08
18 0.47
19 -0.14
2 -0.68
20 0.28
21 -0.18
22 0.03
23 -0.15
24 -0.15
25 -0.15
26 -0.15
27 0.08
3 -0.53
37 0.15
38 0.4
39 0.45
4 -0.36
40 0.15
44 0.15
45 0.15
46 0.15
47 0.15
48 0.15
49 0.45
5 -0.57
6 -0.53
7 0.28
8 0.28
9 0.14

> <PUBCHEM_PHARMACOPHORE_FEATURES>
11
1 1 acceptor
1 2 acceptor
1 2 donor
1 3 donor
1 4 acceptor
1 5 acceptor
1 6 donor
3 7 12 13 hydrophobe
6 1 7 8 9 10 11 rings
6 10 11 14 15 16 17 rings
6 22 23 24 25 26 27 rings

> <PUBCHEM_SHAPE_FINGERPRINT>
10 15 17060330834828618570
10319926 262 17203336610685945380
10369192 42 8214144070947996923
10674148 151 16153418429032286149
10930396 42 17416940912109901610
11456790 92 18271541874977693083
117089 54 15795700211481755291
12166972 35 18040719194791446236
12236239 1 18408328791256287476
12516196 113 18113619001967354060
12592606 108 18261109712553298875
12596602 18 18410290307748172016
12633257 1 16343416306265239592
12760667 363 18409724062790001863
12788726 201 18411141294560241728
12895836 83 8574425418050087344
12895837 130 10014995696398081002
13533116 47 18334297617286966772
13540713 4 17200811998976922828
13540713 5 17271726389233145029
13583140 156 17273681075999307364
13668630 136 17676207957648231322
14068700 675 18408041814490020920
15064981 194 8645901447867990238
15183329 4 13551184485798193900
15188451 53 18411695466217454224
15348495 7 16558742464600248262
17780758 139 18342734096591034114
17857418 61 18333732420764598922
17913733 40 15267066913199194950
1813 80 18261684713820722900
19784866 240 18040157322500009876
20028762 73 18410575081197183138
20691028 202 12606819485458253338
21033648 29 16056614135683503409
21637258 2 18333728035323284940
21756936 100 11023814085823541700
21792934 111 17917991677013913177
22061861 79 16370445562035493386
22224240 67 15051734183680897701
23198884 109 11746937573053249938
23366157 5 17909265033465499593
23522609 53 17898322496066673276
23559900 14 18263077885084007729
23845131 108 16624364367482467817
2838139 119 10159701274409071834
3004659 81 18259986002614962588
3383291 50 18059297664674168479
3472631 163 9151165472599048458
351380 3 18334294275511993718
392239 28 15769781272938643195
4015057 19 16226062106113234628
4409770 3 18264765472709625237
465052 167 18261114080413395230
5104073 3 17630056090495719691
559249 180 18408322177465282103
57724786 102 13758060932049850834
6058803 2 17484524795983867853
7970288 3 18260543416641090642
9896288 288 18057049003831775280
999808 66 17023197049914213787

> <PUBCHEM_SHAPE_MULTIPOLES>
520.43
17.79
2.61
1.51
19.48
1.8
-0.15
-13.82
4.3
-1.35
0.85
0.09
0.03
-1.33

> <PUBCHEM_SHAPE_SELFOVERLAP>
1128.503

> <PUBCHEM_SHAPE_VOLUME>
285.1

> <RelativeEnergy>
0

> <StereoisomerIndex>
1

> <TautomerIndex>
1

> <LibDock Warning>
no hit found

> <ErrorText>
LibDock failed

$$$$
9799506
  SciTegic09112317153D

 49 51  0  0  0  0            999 V2000
   -3.4620    0.3640    2.0060 O   0  0  0  1  0  0
   -4.8580   -1.9440    0.9690 O   0  0  0  1  0  0
   -1.9370   -0.3810   -2.3820 O   0  0  0  1  0  0
    1.1700    0.5080    1.1430 O   0  0  0  1  0  0
    0.5080   -1.0570   -2.7740 O   0  0  0  1  0  0
    8.4820   -0.6060   -0.2090 O   0  0  0  1  0  0
   -4.8500    0.3920    1.6370 C   0  0  0  1  0  0
   -5.1190   -0.6280    0.5100 C   0  0  1  1  0  0
   -4.2020   -0.3150   -0.6770 C   0  0  0  1  0  0
   -2.7700   -0.0870   -0.2320 C   0  0  0  1  0  0
   -2.5100    0.2410    1.0570 C   0  0  0  1  0  0
   -5.1910    1.8150    1.1720 C   0  0  0  1  0  0
   -5.6700    0.0870    2.8940 C   0  0  0  1  0  0
   -1.6710   -0.2390   -1.2110 C   0  0  0  1  0  0
   -1.1080    0.4660    1.4760 C   0  0  0  1  0  0
   -0.2620   -0.2160   -0.7340 C   0  0  0  1  0  0
   -0.0500    0.2650    0.6620 C   0  0  0  1  0  0
    0.7560   -0.6190   -1.5380 C   0  0  0  1  0  0
    2.1660   -0.6060   -1.1140 C   0  0  0  1  0  0
    1.5790    1.8500    0.9240 C   0  0  0  1  0  0
    3.1550   -0.6690   -2.0200 C   0  0  0  1  0  0
    4.5680   -0.6520   -1.5390 C   0  0  0  1  0  0
    5.6270   -0.6750   -2.4660 C   0  0  0  1  0  0
    4.8440   -0.6120   -0.1600 C   0  0  0  1  0  0
    6.9570   -0.6590   -2.0110 C   0  0  0  1  0  0
    6.1760   -0.5980    0.2900 C   0  0  0  1  0  0
    7.2350   -0.6190   -0.6330 C   0  0  0  1  0  0
   -6.1630   -0.6040    0.2010 H   0  0  0  1  0  0
   -4.5560    0.5870   -1.1770 H   0  0  0  1  0  0
   -4.2450   -1.1100   -1.4270 H   0  0  0  1  0  0
   -4.6040    2.1100    0.3020 H   0  0  0  1  0  0
   -4.9950    2.5360    1.9670 H   0  0  0  1  0  0
   -6.2450    1.8890    0.9070 H   0  0  0  1  0  0
   -5.4650   -0.9120    3.2830 H   0  0  0  1  0  0
   -6.7380    0.1470    2.6820 H   0  0  0  1  0  0
   -5.4470    0.8040    3.6850 H   0  0  0  1  0  0
   -0.9270    0.8050    2.4850 H   0  0  0  1  0  0
    2.4850   -0.5480   -0.0820 H   0  0  0  1  0  0
    2.6290    1.9340    1.2020 H   0  0  0  1  0  0
    1.3280    2.1190   -0.1030 H   0  0  0  1  0  0
    1.0040    2.4960    1.5890 H   0  0  0  1  0  0
    3.0110   -0.7300   -3.0880 H   0  0  0  1  0  0
    5.4260   -0.7040   -3.5270 H   0  0  0  1  0  0
    4.0370   -0.5940    0.5590 H   0  0  0  1  0  0
    7.7680   -0.6760   -2.7270 H   0  0  0  1  0  0
    6.3820   -0.5680    1.3500 H   0  0  0  1  0  0
   -5.0580   -2.5470    0.2370 H   0  0  0  1  0  0
    8.6590   -0.5790    0.7390 H   0  0  0  1  0  0
   -0.3850   -1.3430   -3.0040 H   0  0  0  1  0  0
  1  7  1  0
  1 11  1  0
  2  8  1  0
  2 47  1  0
  3 14  2  0
  4 17  1  0
  4 20  1  0
  5 18  1  0
  5 49  1  0
  6 27  1  0
  6 48  1  0
  7  8  1  0
  7 12  1  0
  7 13  1  0
  8  9  1  0
  8 28  1  0
  9 10  1  0
  9 29  1  0
  9 30  1  0
 10 11  2  0
 10 14  1  0
 11 15  1  0
 12 31  1  0
 12 32  1  0
 12 33  1  0
 13 34  1  0
 13 35  1  0
 13 36  1  0
 14 16  1  0
 15 17  2  0
 15 37  1  0
 16 17  1  0
 16 18  2  0
 18 19  1  0
 19 21  2  0
 19 38  1  0
 20 39  1  0
 20 40  1  0
 20 41  1  0
 21 22  1  0
 21 42  1  0
 22 23  2  0
 22 24  1  0
 23 25  1  0
 23 43  1  0
 24 26  2  0
 24 44  1  0
 25 27  2  0
 25 45  1  0
 26 27  1  0
 26 46  1  0
M  END
> <Name>
9799506

> <AbsoluteEnergy>
57.0543

> <ConfNumber>
1

> <Ionization pH>
7.5

> <IonizationIndex>
1

> <NumberOfIonizations>
1

> <NumberOfStereoisomers>
1

> <NumberOfTautomers>
3

> <OBJECTID>
9223374064082681869

> <PUBCHEM_ATOM_DEF_STEREO_COUNT>
0

> <PUBCHEM_ATOM_UDEF_STEREO_COUNT>
1

> <PUBCHEM_BOND_DEF_STEREO_COUNT>
1

> <PUBCHEM_BOND_UDEF_STEREO_COUNT>
0

> <PUBCHEM_CACTVS_TAUTO_COUNT>
21

> <PUBCHEM_COMPONENT_COUNT>
1

> <PUBCHEM_COMPOUND_CID>
9799506

> <PUBCHEM_CONFORMER_DIVERSEORDER>
1
26
8
20
23
24
7
10
19
18
4
12
16
28
9
11
21
3
25
2
27
22
17
5
15
13
6
14

> <PUBCHEM_CONFORMER_ID>
95875200000001

> <PUBCHEM_CONFORMER_RMSD>
0.8

> <PUBCHEM_COORDINATE_TYPE>
2
5
10

> <PUBCHEM_EFFECTIVE_ROTOR_COUNT>
4.8

> <PUBCHEM_FEATURE_SELFOVERLAP>
55.851

> <PUBCHEM_HEAVY_ATOM_COUNT>
27

> <PUBCHEM_ISOTOPIC_ATOM_COUNT>
0

> <PUBCHEM_MMFF94_ENERGY>
103.684

> <PUBCHEM_MMFF94_PARTIAL_CHARGES>
35
1 -0.36
10 -0.14
11 0.08
14 0.08
15 -0.15
16 0.09
17 0.08
18 0.47
19 -0.14
2 -0.68
20 0.28
21 -0.18
22 0.03
23 -0.15
24 -0.15
25 -0.15
26 -0.15
27 0.08
3 -0.53
37 0.15
38 0.4
39 0.45
4 -0.36
40 0.15
44 0.15
45 0.15
46 0.15
47 0.15
48 0.15
49 0.45
5 -0.57
6 -0.53
7 0.28
8 0.28
9 0.14

> <PUBCHEM_PHARMACOPHORE_FEATURES>
11
1 1 acceptor
1 2 acceptor
1 2 donor
1 3 donor
1 4 acceptor
1 5 acceptor
1 6 donor
3 7 12 13 hydrophobe
6 1 7 8 9 10 11 rings
6 10 11 14 15 16 17 rings
6 22 23 24 25 26 27 rings

> <PUBCHEM_SHAPE_FINGERPRINT>
10 15 17060330834828618570
10319926 262 17203336610685945380
10369192 42 8214144070947996923
10674148 151 16153418429032286149
10930396 42 17416940912109901610
11456790 92 18271541874977693083
117089 54 15795700211481755291
12166972 35 18040719194791446236
12236239 1 18408328791256287476
12516196 113 18113619001967354060
12592606 108 18261109712553298875
12596602 18 18410290307748172016
12633257 1 16343416306265239592
12760667 363 18409724062790001863
12788726 201 18411141294560241728
12895836 83 8574425418050087344
12895837 130 10014995696398081002
13533116 47 18334297617286966772
13540713 4 17200811998976922828
13540713 5 17271726389233145029
13583140 156 17273681075999307364
13668630 136 17676207957648231322
14068700 675 18408041814490020920
15064981 194 8645901447867990238
15183329 4 13551184485798193900
15188451 53 18411695466217454224
15348495 7 16558742464600248262
17780758 139 18342734096591034114
17857418 61 18333732420764598922
17913733 40 15267066913199194950
1813 80 18261684713820722900
19784866 240 18040157322500009876
20028762 73 18410575081197183138
20691028 202 12606819485458253338
21033648 29 16056614135683503409
21637258 2 18333728035323284940
21756936 100 11023814085823541700
21792934 111 17917991677013913177
22061861 79 16370445562035493386
22224240 67 15051734183680897701
23198884 109 11746937573053249938
23366157 5 17909265033465499593
23522609 53 17898322496066673276
23559900 14 18263077885084007729
23845131 108 16624364367482467817
2838139 119 10159701274409071834
3004659 81 18259986002614962588
3383291 50 18059297664674168479
3472631 163 9151165472599048458
351380 3 18334294275511993718
392239 28 15769781272938643195
4015057 19 16226062106113234628
4409770 3 18264765472709625237
465052 167 18261114080413395230
5104073 3 17630056090495719691
559249 180 18408322177465282103
57724786 102 13758060932049850834
6058803 2 17484524795983867853
7970288 3 18260543416641090642
9896288 288 18057049003831775280
999808 66 17023197049914213787

> <PUBCHEM_SHAPE_MULTIPOLES>
520.43
17.79
2.61
1.51
19.48
1.8
-0.15
-13.82
4.3
-1.35
0.85
0.09
0.03
-1.33

> <PUBCHEM_SHAPE_SELFOVERLAP>
1128.503

> <PUBCHEM_SHAPE_VOLUME>
285.1

> <RelativeEnergy>
0

> <StereoisomerIndex>
1

> <TautomerIndex>
2

> <LibDock Warning>
no hit found

> <ErrorText>
LibDock failed

$$$$
10087955
  SciTegic09112317153D

 38 39  0  0  0  0            999 V2000
    4.1280    3.4410    0.2870 O   0  0  0  1  0  0
   -4.8470   -5.6310    0.9760 O   0  0  0  1  0  0
    3.5470    5.1860   -1.7380 O   0  0  0  1  0  0
   -0.1690   -1.8680    1.5520 O   0  0  0  1  0  0
   -3.0710   -0.0490    1.6250 O   0  5  0  1  0  0
   -4.0110   -1.1610    3.1960 O   0  0  0  1  0  0
   -1.5860   -1.3160   -0.0870 N   0  0  0  1  0  0
   -2.4090   -2.3770    0.1970 C   0  0  0  1  0  0
   -3.3530   -2.3190    1.2490 C   0  0  0  1  0  0
    1.0180    2.0130   -0.9510 C   0  0  0  1  0  0
   -2.3040   -3.5470   -0.5820 C   0  0  0  1  0  0
    2.1770    2.1970   -0.1780 C   0  0  0  1  0  0
   -4.1780   -3.4300    1.5070 C   0  0  0  1  0  0
    3.0420    3.2740   -0.4420 C   0  0  0  1  0  0
    0.7210    2.9110   -1.9920 C   0  0  0  1  0  0
    0.1040    0.8670   -0.6670 C   0  0  0  1  0  0
   -4.0700   -4.5940    0.7280 C   0  0  0  1  0  0
   -3.1330   -4.6490   -0.3160 C   0  0  0  1  0  0
    2.7430    4.1720   -1.4850 C   0  0  0  1  0  0
   -0.4540   -1.1130    0.6500 C   0  0  0  1  0  0
    1.5830    3.9890   -2.2560 C   0  0  0  1  0  0
    0.4150    0.0260    0.3330 C   0  0  0  1  0  0
   -3.4990   -1.0980    2.1030 C   0  0  0  1  0  0
    5.3230    2.8100   -0.1450 C   0  0  0  1  0  0
   -1.5910   -3.6140   -1.3910 H   0  0  0  1  0  0
    2.4130    1.5110    0.6230 H   0  0  0  1  0  0
   -4.9020   -3.3930    2.3090 H   0  0  0  1  0  0
   -0.1690    2.7770   -2.5910 H   0  0  0  1  0  0
   -0.8070    0.6370   -1.1980 H   0  0  0  1  0  0
   -3.0470   -5.5430   -0.9170 H   0  0  0  1  0  0
    1.3530    4.6750   -3.0570 H   0  0  0  1  0  0
    1.2920    0.1260    0.9540 H   0  0  0  1  0  0
    5.2300    1.7400    0.0350 H   0  0  0  1  0  0
    5.5140    3.1110   -1.1760 H   0  0  0  1  0  0
    6.1450    3.1810    0.4670 H   0  0  0  1  0  0
   -4.7630   -6.4240    0.4320 H   0  0  0  1  0  0
    4.2970    5.3520   -1.1520 H   0  0  0  1  0  0
   -1.8160   -0.6890   -0.8320 H   0  0  0  1  0  0
  1 14  1  0
  1 24  1  0
  2 17  1  0
  2 36  1  0
  3 19  1  0
  3 37  1  0
  4 20  2  0
  5 23  1  0
  6 23  2  0
  7  8  1  0
  7 20  1  0
  7 38  1  0
  8  9  2  0
  8 11  1  0
  9 13  1  0
  9 23  1  0
 10 12  2  0
 10 15  1  0
 10 16  1  0
 11 18  2  0
 11 25  1  0
 12 14  1  0
 12 26  1  0
 13 17  2  0
 13 27  1  0
 14 19  2  0
 15 21  2  0
 15 28  1  0
 16 22  2  0
 16 29  1  0
 17 18  1  0
 18 30  1  0
 19 21  1  0
 20 22  1  0
 21 31  1  0
 22 32  1  0
 24 33  1  0
 24 34  1  0
 24 35  1  0
M  CHG  1   5  -1
M  END
> <Name>
10087955

> <AbsoluteEnergy>
62.3072

> <ConfNumber>
1

> <Ionization pH>
7.5

> <IonizationIndex>
1

> <NumberOfIonizations>
1

> <NumberOfStereoisomers>
1

> <NumberOfTautomers>
3

> <OBJECTID>
9223374111327322125

> <PUBCHEM_ATOM_DEF_STEREO_COUNT>
0

> <PUBCHEM_ATOM_UDEF_STEREO_COUNT>
0

> <PUBCHEM_BOND_DEF_STEREO_COUNT>
1

> <PUBCHEM_BOND_UDEF_STEREO_COUNT>
0

> <PUBCHEM_CACTVS_TAUTO_COUNT>
22

> <PUBCHEM_COMPONENT_COUNT>
1

> <PUBCHEM_COMPOUND_CID>
10087955

> <PUBCHEM_CONFORMER_DIVERSEORDER>
1
27
13
12
11
18
24
8
16
5
26
9
20
25
6
22
17
2
7
10
19
3
21
14
15
23
4

> <PUBCHEM_CONFORMER_ID>
0099EE1300000001

> <PUBCHEM_CONFORMER_RMSD>
0.8

> <PUBCHEM_COORDINATE_TYPE>
2
5
10

> <PUBCHEM_EFFECTIVE_ROTOR_COUNT>
6

> <PUBCHEM_FEATURE_SELFOVERLAP>
50.805

> <PUBCHEM_HEAVY_ATOM_COUNT>
24

> <PUBCHEM_ISOTOPIC_ATOM_COUNT>
0

> <PUBCHEM_MMFF94_ENERGY>
86.7781

> <PUBCHEM_MMFF94_PARTIAL_CHARGES>
36
1 -0.36
10 0.03
11 -0.15
12 -0.15
13 -0.15
14 0.08
15 -0.15
16 -0.18
17 0.08
18 -0.15
19 0.08
2 -0.53
20 0.62
21 -0.15
22 -0.14
23 0.63
24 0.28
25 0.15
26 0.37
27 0.15
28 0.15
29 0.15
3 -0.53
30 0.15
31 0.15
32 0.15
33 0.15
34 0.45
35 0.45
39 0.5
4 -0.57
5 -0.65
6 -0.57
7 -0.55
8 0.12
9 0.09

> <PUBCHEM_PHARMACOPHORE_FEATURES>
10
1 1 acceptor
1 2 donor
1 3 donor
1 4 acceptor
1 5 acceptor
1 6 acceptor
1 7 donor
3 5 6 23 anion
6 10 12 14 15 19 21 rings
6 8 9 11 13 17 18 rings

> <PUBCHEM_SHAPE_FINGERPRINT>
10299344 5 18413110558519188237
10595046 47 18411700988944464913
10835480 77 18336257943076326565
11315181 36 17632578271475455369
11524674 6 16630808829203475653
11963148 33 18334849550470380762
12107183 9 17621043062189824697
12236239 1 18131071506711004912
12516196 113 18272087193004277752
12596602 18 17632297886739722280
12788726 201 17274546416702734017
13073987 5 18339644443163478417
13167823 11 18342455928538707397
13533116 47 18413107229940509760
14251764 18 18131635582794923929
14341114 176 18412549799573957981
14461889 52 18341043129670609592
15183329 4 18408882936674100803
15196674 1 18411418384422815519
15250474 111 18342162363419677327
15537594 2 18130783468860508783
15799311 1 18338250313895353123
15927050 60 17552071119298582540
16993427 108 16809242889424803698
16993438 75 17970637495894902043
17492 89 18123468268294354526
17844677 252 18412269410871207913
17857418 61 18411698781742257197
1813 80 17386012732468463341
20028762 73 18340200779310927578
20645477 70 18336828585494730186
21033648 29 14333123010303361897
21054139 6 18409447024910140350
21065198 48 18271528589457364329
21197605 99 18339645671561301486
21267235 1 18341616971856343260
21623969 137 18334586741030369003
220451 1 18411427189227202025
22224240 67 18409444813608754880
23522609 53 18193587555997419692
23559900 14 18340479088927941609
239999 70 18202289078819195028
3004659 81 18334859381449080024
338550 245 18336830900007635390
4073 2 18260834842407549747
4214541 1 18412826872235953673
4325135 7 18408604764210976516
4340502 62 18343578552129334008
5104073 3 18272088275435743985
5758199 1 18341331171905958064
6431902 208 18337672039879012335
67856867 119 18338238279387226413
7970288 3 17760927338724576842
999808 66 17968671501380954347

> <PUBCHEM_SHAPE_MULTIPOLES>
453.71
18.77
2.87
0.66
4.39
2.1
0.01
2.25
0.48
0.12
0.27
0.15
0.08
-0.68

> <PUBCHEM_SHAPE_SELFOVERLAP>
975.612

> <PUBCHEM_SHAPE_VOLUME>
248.5

> <RelativeEnergy>
0

> <StereoisomerIndex>
1

> <TautomerIndex>
1

> <LibDock Warning>
no hit found

> <ErrorText>
LibDock failed

$$$$
10317069
  SciTegic09112317153D

 49 50  0  0  0  0            999 V2000
   -2.3030   -3.6650    1.4030 O   0  0  0  1  0  0
   -2.5890   -1.3540   -0.4110 O   0  0  0  1  0  0
    1.7320    0.7080   -0.9400 O   0  0  0  1  0  0
    1.1480   -3.9530   -1.3410 O   0  0  0  1  0  0
   -2.4320    1.1780   -0.1410 O   0  0  0  1  0  0
    2.1910    8.1590   -0.0270 O   0  0  0  1  0  0
   -1.5920   -3.9500   -0.8520 C   0  0  0  1  0  0
   -0.7530   -2.6950   -0.8690 C   0  0  0  1  0  0
   -1.6690   -4.5810    0.5390 C   0  0  1  1  0  0
   -1.3970   -1.3880   -0.6180 C   0  0  0  1  0  0
    0.5700   -2.7750   -1.1120 C   0  0  0  1  0  0
   -0.5660   -0.1510   -0.6240 C   0  0  0  1  0  0
   -0.3130   -4.9310    1.0880 C   0  0  0  1  0  0
    0.8890   -0.3230   -0.9030 C   0  0  0  1  0  0
    1.3970   -1.5530   -1.1280 C   0  0  0  1  0  0
   -1.1280    1.0640   -0.3860 C   0  0  0  1  0  0
    0.3940   -6.2190    0.7630 C   0  0  0  1  0  0
    0.2940   -4.0550    1.9030 C   0  0  0  1  0  0
   -0.3540    2.3170   -0.3800 C   0  0  0  1  0  0
   -0.9200    3.4690    0.0140 C   0  0  0  1  0  0
   -0.0940    4.7130    0.0030 C   0  0  0  1  0  0
    2.5560    0.7760    0.2140 C   0  0  0  1  0  0
   -0.6470    5.9290    0.4460 C   0  0  0  1  0  0
    1.2350    4.6710   -0.4500 C   0  0  0  1  0  0
    0.1320    7.0980    0.4340 C   0  0  0  1  0  0
    2.0130    5.8430   -0.4600 C   0  0  0  1  0  0
    1.4620    7.0590   -0.0180 C   0  0  0  1  0  0
   -2.6190   -3.7140   -1.1330 H   0  0  0  1  0  0
   -1.2030   -4.6660   -1.5780 H   0  0  0  1  0  0
   -2.2660   -5.4920    0.5150 H   0  0  0  1  0  0
    2.4550   -1.6550   -1.3300 H   0  0  0  1  0  0
    1.2140   -6.4490    1.4440 H   0  0  0  1  0  0
    0.8040   -6.1730   -0.2470 H   0  0  0  1  0  0
   -0.3110   -7.0490    0.7980 H   0  0  0  1  0  0
   -0.0740   -3.0840    2.2050 H   0  0  0  1  0  0
    1.2520   -4.3700    2.2890 H   0  0  0  1  0  0
    0.6810    2.3870   -0.6790 H   0  0  0  1  0  0
   -1.9440    3.5740    0.3420 H   0  0  0  1  0  0
    2.0550    1.3950    0.9580 H   0  0  0  1  0  0
    2.8000   -0.2420    0.5180 H   0  0  0  1  0  0
    3.4870    1.2730   -0.0590 H   0  0  0  1  0  0
   -1.6680    5.9700    0.7950 H   0  0  0  1  0  0
    1.6690    3.7430   -0.7920 H   0  0  0  1  0  0
   -0.2970    8.0310    0.7760 H   0  0  0  1  0  0
    3.0330    5.8060   -0.8090 H   0  0  0  1  0  0
   -2.5060   -4.1400    2.2250 H   0  0  0  1  0  0
    2.0990   -3.9890   -1.5130 H   0  0  0  1  0  0
    3.1050    8.1160   -0.3410 H   0  0  0  1  0  0
   -2.7960    0.8040    0.6720 H   0  0  0  1  0  0
  1  9  1  0
  1 46  1  0
  2 10  2  0
  3 14  1  0
  3 22  1  0
  4 11  1  0
  4 47  1  0
  5 16  1  0
  5 49  1  0
  6 27  1  0
  6 48  1  0
  7  8  1  0
  7  9  1  0
  7 28  1  0
  7 29  1  0
  8 10  1  0
  8 11  2  0
  9 13  1  0
  9 30  1  0
 10 12  1  0
 11 15  1  0
 12 14  1  0
 12 16  2  0
 13 17  1  0
 13 18  2  0
 14 15  2  0
 15 31  1  0
 16 19  1  0
 17 32  1  0
 17 33  1  0
 17 34  1  0
 18 35  1  0
 18 36  1  0
 19 20  2  0
 19 37  1  0
 20 21  1  0
 20 38  1  0
 21 23  2  0
 21 24  1  0
 22 39  1  0
 22 40  1  0
 22 41  1  0
 23 25  1  0
 23 42  1  0
 24 26  2  0
 24 43  1  0
 25 27  2  0
 25 44  1  0
 26 27  1  0
 26 45  1  0
M  END
> <Name>
10317069

> <AbsoluteEnergy>
65.8729

> <ConfNumber>
1

> <Ionization pH>
7.5

> <IonizationIndex>
1

> <NumberOfIonizations>
1

> <NumberOfStereoisomers>
1

> <NumberOfTautomers>
4

> <OBJECTID>
9223374145687060493

> <PUBCHEM_ATOM_DEF_STEREO_COUNT>
0

> <PUBCHEM_ATOM_UDEF_STEREO_COUNT>
1

> <PUBCHEM_BOND_DEF_STEREO_COUNT>
1

> <PUBCHEM_BOND_UDEF_STEREO_COUNT>
0

> <PUBCHEM_CACTVS_TAUTO_COUNT>
57

> <PUBCHEM_COMPONENT_COUNT>
1

> <PUBCHEM_COMPOUND_CID>
10317069

> <PUBCHEM_CONFORMER_DIVERSEORDER>
1
109
95
111
96
35
9
17
132
92
3
121
64
15
99
20
122
107
91
13
125
60
102
73
126
110
45
66
119
123
4
103
88
54
12
134
61
71
129
21
58
42
93
25
56
113
67
104
51
94
106
14
74
120
80
130
47
79
5
40
19
43
135
24
7
30
101
33
2
100
10
16
90
133
28
36
27
52
116
62
75
72
37
11
29
117
105
85
131
8
86
69
46
108
39
63
81
34
49
97
57
137
112
87
77
26
83
128
76
55
124
65
138
22
82
84
23
48
89
118
44
68
53
32
41
6
114
38
50
127
18
31
98
59
78
136
70
115

> <PUBCHEM_CONFORMER_ID>
009D6D0D00000001

> <PUBCHEM_CONFORMER_RMSD>
0.8

> <PUBCHEM_COORDINATE_TYPE>
2
5
10

> <PUBCHEM_EFFECTIVE_ROTOR_COUNT>
7

> <PUBCHEM_FEATURE_SELFOVERLAP>
45.674

> <PUBCHEM_HEAVY_ATOM_COUNT>
27

> <PUBCHEM_ISOTOPIC_ATOM_COUNT>
0

> <PUBCHEM_MMFF94_ENERGY>
91.2125

> <PUBCHEM_MMFF94_PARTIAL_CHARGES>
40
1 -0.68
10 0.08
11 0.08
12 0.09
13 -0.28
14 0.08
15 -0.15
16 0.47
17 0.14
18 -0.3
19 -0.14
2 -0.53
20 -0.18
21 0.03
22 0.28
23 -0.15
24 -0.15
25 -0.15
26 -0.15
27 0.08
3 -0.36
31 0.15
35 0.4
36 0.15
37 0.15
38 0.45
39 0.15
4 -0.53
40 0.45
41 0.15
45 0.15
46 0.15
47 0.15
48 0.15
49 0.45
5 -0.57
6 -0.53
7 0.14
8 -0.14
9 0.42

> <PUBCHEM_PHARMACOPHORE_FEATURES>
9
1 1 acceptor
1 1 donor
1 2 donor
1 3 acceptor
1 4 donor
1 5 acceptor
1 6 donor
6 21 23 24 25 26 27 rings
6 8 10 11 12 14 15 rings

> <PUBCHEM_SHAPE_FINGERPRINT>
10 15 17385723633698240580
10670039 82 16200440126468510657
10674148 151 17917715695769625204
10693767 8 10015584978073697029
10794284 68 15506640777665833298
11796584 16 14189565347721329900
11823591 26 18340197574699821888
1200032 147 16485598454553529347
12390115 104 18269558397706269071
12596602 18 18411422821561596883
12623949 98 12252723891631092904
13540713 5 18120066594256843370
13631057 29 18129088100395651487
13782708 43 11675968496134384976
13885169 86 18336830917240797412
13955234 65 18189049803021739594
14251764 75 18336548338842217088
14341114 176 17968097482637407881
14341114 328 18272086076829245163
14747281 78 18264229010177370660
14790565 3 18336543927752490452
14840074 17 18202002127628066117
15183329 4 15338847451407524580
15238133 3 17988067976915371618
15475509 35 15719941412016443554
17980427 23 17749957785975287079
1813 80 12035730864735808931
18222031 100 9799421035687897332
19309040 13 18122916593020859892
19315092 285 8430057321563914604
1979834 28 17603589625258805348
21033650 10 15554175800739733467
21521239 73 11167940255740610557
21756936 100 18199180870620885846
21781055 127 17988927739569265602
21792964 463 17914638093630068745
221357 26 10879985849082154915
22224240 67 18040997367080516467
22393880 68 13398619555247914581
25147074 1 18046034290241274754
3178227 256 18261670360230209378
3411729 13 18333452036498584946
38570 142 18201729465301163876
397830 11 17458346351417392601
4340502 62 17167860868126666016
437795 70 15697730267164373929
5104073 3 18114170973610100338
5364581 5 17386860580814947517
59682541 52 16128389142269499052

> <PUBCHEM_SHAPE_MULTIPOLES>
520.43
17.48
3.58
1.54
17.92
2.23
-0.08
-19.39
4.67
-4.8
-0.57
0.5
0.07
-1.75

> <PUBCHEM_SHAPE_SELFOVERLAP>
1107.333

> <PUBCHEM_SHAPE_VOLUME>
289.9

> <RelativeEnergy>
0

> <StereoisomerIndex>
1

> <TautomerIndex>
3

> <LibDock Warning>
no hit found

> <ErrorText>
LibDock failed

$$$$
10317069
  SciTegic09112317153D

 49 50  0  0  0  0            999 V2000
   -1.8080   -5.8740    1.5370 O   0  0  0  1  0  0
   -0.6910   -2.2120   -1.4430 O   0  0  0  1  0  0
    1.6160    1.0790    1.4180 O   0  0  0  1  0  0
    0.7620   -3.2260    2.8500 O   0  0  0  1  0  0
   -0.2460    0.1270   -2.2950 O   0  0  0  1  0  0
    2.7000    7.9150   -1.4880 O   0  0  0  1  0  0
   -0.5380   -4.1500    0.4950 C   0  0  0  1  0  0
    0.0130   -2.7570    0.6860 C   0  0  0  1  0  0
   -1.6550   -4.4740    1.4890 C   0  0  1  1  0  0
   -0.0920   -1.8460   -0.3070 C   0  0  0  1  0  0
    0.6640   -2.4120    1.9620 C   0  0  0  1  0  0
    0.4500   -0.4610   -0.1360 C   0  0  0  1  0  0
   -2.9670   -3.8400    1.1040 C   0  0  0  1  0  0
    1.1040   -0.1260    1.1680 C   0  0  0  1  0  0
    1.1970   -1.0540    2.1410 C   0  0  0  1  0  0
    0.3400    0.4470   -1.1420 C   0  0  0  1  0  0
   -4.0730   -4.5960    0.4170 C   0  0  0  1  0  0
   -3.1580   -2.5430    1.3890 C   0  0  0  1  0  0
    0.8490    1.8230   -1.0400 C   0  0  0  1  0  0
    0.6890    2.6880   -2.0550 C   0  0  0  1  0  0
    1.2230    4.0760   -1.9050 C   0  0  0  1  0  0
    0.8460    1.8050    2.3660 C   0  0  0  1  0  0
    1.0720    5.0050   -2.9480 C   0  0  0  1  0  0
    1.8770    4.4550   -0.7190 C   0  0  0  1  0  0
    1.5740    6.3100   -2.8070 C   0  0  0  1  0  0
    2.3780    5.7600   -0.5790 C   0  0  0  1  0  0
    2.2290    6.6910   -1.6210 C   0  0  0  1  0  0
   -0.9820   -4.2390   -0.4970 H   0  0  0  1  0  0
    0.2650   -4.8800    0.5670 H   0  0  0  1  0  0
   -1.3960   -4.1250    2.4870 H   0  0  0  1  0  0
    1.6710   -0.7990    3.0770 H   0  0  0  1  0  0
   -4.5670   -4.0240   -0.3660 H   0  0  0  1  0  0
   -4.8280   -4.8910    1.1450 H   0  0  0  1  0  0
   -3.6740   -5.5050   -0.0350 H   0  0  0  1  0  0
   -2.4660   -1.8760    1.8840 H   0  0  0  1  0  0
   -4.1110   -2.1370    1.0840 H   0  0  0  1  0  0
    1.3640    2.2150   -0.1760 H   0  0  0  1  0  0
    0.1980    2.4620   -2.9890 H   0  0  0  1  0  0
   -0.0470    2.1790    1.8650 H   0  0  0  1  0  0
    0.6830    1.1670    3.2330 H   0  0  0  1  0  0
    1.4300    2.6660    2.6910 H   0  0  0  1  0  0
    0.5700    4.7240   -3.8650 H   0  0  0  1  0  0
    1.9980    3.7480    0.0900 H   0  0  0  1  0  0
    1.4560    7.0200   -3.6110 H   0  0  0  1  0  0
    2.8800    6.0460    0.3340 H   0  0  0  1  0  0
   -2.2880   -6.0810    2.3550 H   0  0  0  1  0  0
   -0.2270   -2.7970   -2.0540 H   0  0  0  1  0  0
    3.1470    8.1630   -0.6690 H   0  0  0  1  0  0
    0.0990   -0.6130   -2.8110 H   0  0  0  1  0  0
  1  9  1  0
  1 46  1  0
  2 10  1  0
  2 47  1  0
  3 14  1  0
  3 22  1  0
  4 11  2  0
  5 16  1  0
  5 49  1  0
  6 27  1  0
  6 48  1  0
  7  8  1  0
  7  9  1  0
  7 28  1  0
  7 29  1  0
  8 10  2  0
  8 11  1  0
  9 13  1  0
  9 30  1  0
 10 12  1  0
 11 15  1  0
 12 14  1  0
 12 16  2  0
 13 17  1  0
 13 18  2  0
 14 15  2  0
 15 31  1  0
 16 19  1  0
 17 32  1  0
 17 33  1  0
 17 34  1  0
 18 35  1  0
 18 36  1  0
 19 20  2  0
 19 37  1  0
 20 21  1  0
 20 38  1  0
 21 23  2  0
 21 24  1  0
 22 39  1  0
 22 40  1  0
 22 41  1  0
 23 25  1  0
 23 42  1  0
 24 26  2  0
 24 43  1  0
 25 27  2  0
 25 44  1  0
 26 27  1  0
 26 45  1  0
M  END
> <Name>
10317069

> <AbsoluteEnergy>
71.2002

> <ConfNumber>
1

> <Ionization pH>
7.5

> <IonizationIndex>
1

> <NumberOfIonizations>
1

> <NumberOfStereoisomers>
1

> <NumberOfTautomers>
4

> <OBJECTID>
9223374149982027789

> <PUBCHEM_ATOM_DEF_STEREO_COUNT>
0

> <PUBCHEM_ATOM_UDEF_STEREO_COUNT>
1

> <PUBCHEM_BOND_DEF_STEREO_COUNT>
1

> <PUBCHEM_BOND_UDEF_STEREO_COUNT>
0

> <PUBCHEM_CACTVS_TAUTO_COUNT>
57

> <PUBCHEM_COMPONENT_COUNT>
1

> <PUBCHEM_COMPOUND_CID>
10317069

> <PUBCHEM_CONFORMER_DIVERSEORDER>
1
109
95
111
96
35
9
17
132
92
3
121
64
15
99
20
122
107
91
13
125
60
102
73
126
110
45
66
119
123
4
103
88
54
12
134
61
71
129
21
58
42
93
25
56
113
67
104
51
94
106
14
74
120
80
130
47
79
5
40
19
43
135
24
7
30
101
33
2
100
10
16
90
133
28
36
27
52
116
62
75
72
37
11
29
117
105
85
131
8
86
69
46
108
39
63
81
34
49
97
57
137
112
87
77
26
83
128
76
55
124
65
138
22
82
84
23
48
89
118
44
68
53
32
41
6
114
38
50
127
18
31
98
59
78
136
70
115

> <PUBCHEM_CONFORMER_ID>
009D6D0D00000001

> <PUBCHEM_CONFORMER_RMSD>
0.8

> <PUBCHEM_COORDINATE_TYPE>
2
5
10

> <PUBCHEM_EFFECTIVE_ROTOR_COUNT>
7

> <PUBCHEM_FEATURE_SELFOVERLAP>
45.674

> <PUBCHEM_HEAVY_ATOM_COUNT>
27

> <PUBCHEM_ISOTOPIC_ATOM_COUNT>
0

> <PUBCHEM_MMFF94_ENERGY>
91.2125

> <PUBCHEM_MMFF94_PARTIAL_CHARGES>
40
1 -0.68
10 0.08
11 0.08
12 0.09
13 -0.28
14 0.08
15 -0.15
16 0.47
17 0.14
18 -0.3
19 -0.14
2 -0.53
20 -0.18
21 0.03
22 0.28
23 -0.15
24 -0.15
25 -0.15
26 -0.15
27 0.08
3 -0.36
31 0.15
35 0.4
36 0.15
37 0.15
38 0.45
39 0.15
4 -0.53
40 0.45
41 0.15
45 0.15
46 0.15
47 0.15
48 0.15
49 0.45
5 -0.57
6 -0.53
7 0.14
8 -0.14
9 0.42

> <PUBCHEM_PHARMACOPHORE_FEATURES>
9
1 1 acceptor
1 1 donor
1 2 donor
1 3 acceptor
1 4 donor
1 5 acceptor
1 6 donor
6 21 23 24 25 26 27 rings
6 8 10 11 12 14 15 rings

> <PUBCHEM_SHAPE_FINGERPRINT>
10 15 17385723633698240580
10670039 82 16200440126468510657
10674148 151 17917715695769625204
10693767 8 10015584978073697029
10794284 68 15506640777665833298
11796584 16 14189565347721329900
11823591 26 18340197574699821888
1200032 147 16485598454553529347
12390115 104 18269558397706269071
12596602 18 18411422821561596883
12623949 98 12252723891631092904
13540713 5 18120066594256843370
13631057 29 18129088100395651487
13782708 43 11675968496134384976
13885169 86 18336830917240797412
13955234 65 18189049803021739594
14251764 75 18336548338842217088
14341114 176 17968097482637407881
14341114 328 18272086076829245163
14747281 78 18264229010177370660
14790565 3 18336543927752490452
14840074 17 18202002127628066117
15183329 4 15338847451407524580
15238133 3 17988067976915371618
15475509 35 15719941412016443554
17980427 23 17749957785975287079
1813 80 12035730864735808931
18222031 100 9799421035687897332
19309040 13 18122916593020859892
19315092 285 8430057321563914604
1979834 28 17603589625258805348
21033650 10 15554175800739733467
21521239 73 11167940255740610557
21756936 100 18199180870620885846
21781055 127 17988927739569265602
21792964 463 17914638093630068745
221357 26 10879985849082154915
22224240 67 18040997367080516467
22393880 68 13398619555247914581
25147074 1 18046034290241274754
3178227 256 18261670360230209378
3411729 13 18333452036498584946
38570 142 18201729465301163876
397830 11 17458346351417392601
4340502 62 17167860868126666016
437795 70 15697730267164373929
5104073 3 18114170973610100338
5364581 5 17386860580814947517
59682541 52 16128389142269499052

> <PUBCHEM_SHAPE_MULTIPOLES>
520.43
17.48
3.58
1.54
17.92
2.23
-0.08
-19.39
4.67
-4.8
-0.57
0.5
0.07
-1.75

> <PUBCHEM_SHAPE_SELFOVERLAP>
1107.333

> <PUBCHEM_SHAPE_VOLUME>
289.9

> <RelativeEnergy>
0

> <StereoisomerIndex>
1

> <TautomerIndex>
4

> <LibDock Warning>
no hit found

> <ErrorText>
LibDock failed

$$$$
10338075
  SciTegic09112317153D

 46 48  0  0  0  0            999 V2000
   -4.0030   -0.5800   -0.2460 O   0  0  0  1  0  0
    0.6610   -1.0640   -0.7280 O   0  0  0  1  0  0
   -1.3440    3.2700   -0.1220 O   0  0  0  1  0  0
    1.1990    3.1430   -0.2740 O   0  0  0  1  0  0
    7.7050   -2.3400   -0.3020 O   0  0  0  1  0  0
   -5.1080    0.0530    0.4240 C   0  0  0  1  0  0
   -5.1190    1.5530    0.2170 C   0  0  0  1  0  0
   -2.7200    1.4000   -0.1880 C   0  0  0  1  0  0
   -2.8150    0.0550   -0.2960 C   0  0  0  1  0  0
   -6.3980   -0.5660   -0.1200 C   0  0  0  1  0  0
   -4.9810   -0.2430    1.9220 C   0  0  0  1  0  0
   -3.9600    2.1810   -0.0430 C   0  0  0  1  0  0
   -1.3980    2.0650   -0.2280 C   0  0  0  1  0  0
   -1.6000   -0.7600   -0.4920 C   0  0  0  1  0  0
   -0.1670    1.2430   -0.3950 C   0  0  0  1  0  0
   -0.3600   -0.2300   -0.5440 C   0  0  0  1  0  0
    1.0630    1.8240   -0.4090 C   0  0  0  1  0  0
    2.3080    1.0560   -0.5700 C   0  0  0  1  0  0
    2.9570    0.5740    0.5010 C   0  0  0  1  0  0
    0.9490   -1.8330    0.4320 C   0  0  0  1  0  0
    4.2170   -0.1990    0.2870 C   0  0  0  1  0  0
    4.9250   -0.7120    1.3890 C   0  0  0  1  0  0
    4.6980   -0.4170   -1.0150 C   0  0  0  1  0  0
    6.1100   -1.4400    1.1870 C   0  0  0  1  0  0
    5.8840   -1.1450   -1.2150 C   0  0  0  1  0  0
    6.5940   -1.6570   -0.1160 C   0  0  0  1  0  0
   -6.0420    2.1080    0.2820 H   0  0  0  1  0  0
   -6.5140   -0.3860   -1.1890 H   0  0  0  1  0  0
   -7.2670   -0.1490    0.3840 H   0  0  0  1  0  0
   -6.4040   -1.6440    0.0380 H   0  0  0  1  0  0
   -4.0680    0.1800    2.3430 H   0  0  0  1  0  0
   -4.9660   -1.3160    2.1040 H   0  0  0  1  0  0
   -5.8250    0.1760    2.4690 H   0  0  0  1  0  0
   -3.9490    3.2560   -0.1470 H   0  0  0  1  0  0
   -1.7160   -1.8290   -0.5990 H   0  0  0  1  0  0
    2.7640    0.8380   -1.5250 H   0  0  0  1  0  0
    2.6390    0.6990    1.5270 H   0  0  0  1  0  0
    1.8910   -2.3530    0.2720 H   0  0  0  1  0  0
    0.9030   -1.1720    1.2990 H   0  0  0  1  0  0
    0.1670   -2.5840    0.5450 H   0  0  0  1  0  0
    4.5620   -0.5510    2.3960 H   0  0  0  1  0  0
    4.1620   -0.0270   -1.8690 H   0  0  0  1  0  0
    6.6500   -1.8310    2.0370 H   0  0  0  1  0  0
    6.2500   -1.3080   -2.2180 H   0  0  0  1  0  0
    8.0260   -2.4820   -1.2040 H   0  0  0  1  0  0
    0.5700    3.6270    0.2750 H   0  0  0  1  0  0
  1  6  1  0
  1  9  1  0
  2 16  1  0
  2 20  1  0
  3 13  2  0
  4 17  1  0
  4 46  1  0
  5 26  1  0
  5 45  1  0
  6  7  1  0
  6 10  1  0
  6 11  1  0
  7 12  2  0
  7 27  1  0
  8  9  2  0
  8 12  1  0
  8 13  1  0
  9 14  1  0
 10 28  1  0
 10 29  1  0
 10 30  1  0
 11 31  1  0
 11 32  1  0
 11 33  1  0
 12 34  1  0
 13 15  1  0
 14 16  2  0
 14 35  1  0
 15 16  1  0
 15 17  2  0
 17 18  1  0
 18 19  2  0
 18 36  1  0
 19 21  1  0
 19 37  1  0
 20 38  1  0
 20 39  1  0
 20 40  1  0
 21 22  2  0
 21 23  1  0
 22 24  1  0
 22 41  1  0
 23 25  2  0
 23 42  1  0
 24 26  2  0
 24 43  1  0
 25 26  1  0
 25 44  1  0
M  END
> <Name>
10338075

> <AbsoluteEnergy>
63.0245

> <ConfNumber>
1

> <Ionization pH>
7.5

> <IonizationIndex>
1

> <NumberOfIonizations>
1

> <NumberOfStereoisomers>
1

> <NumberOfTautomers>
3

> <OBJECTID>
9223374158571962381

> <PUBCHEM_ATOM_DEF_STEREO_COUNT>
0

> <PUBCHEM_ATOM_UDEF_STEREO_COUNT>
0

> <PUBCHEM_BOND_DEF_STEREO_COUNT>
1

> <PUBCHEM_BOND_UDEF_STEREO_COUNT>
0

> <PUBCHEM_CACTVS_TAUTO_COUNT>
21

> <PUBCHEM_COMPONENT_COUNT>
1

> <PUBCHEM_COMPOUND_CID>
10338075

> <PUBCHEM_CONFORMER_DIVERSEORDER>
1
4
6
9
3
5
10
2
11
7
8

> <PUBCHEM_CONFORMER_ID>
009DBF1B00000001

> <PUBCHEM_CONFORMER_RMSD>
0.8

> <PUBCHEM_COORDINATE_TYPE>
2
5
10

> <PUBCHEM_EFFECTIVE_ROTOR_COUNT>
4.4

> <PUBCHEM_FEATURE_SELFOVERLAP>
45.701

> <PUBCHEM_HEAVY_ATOM_COUNT>
26

> <PUBCHEM_ISOTOPIC_ATOM_COUNT>
0

> <PUBCHEM_MMFF94_ENERGY>
98.6242

> <PUBCHEM_MMFF94_PARTIAL_CHARGES>
35
1 -0.36
12 -0.18
13 0.08
14 -0.15
15 0.09
16 0.08
17 0.47
18 -0.14
19 -0.18
2 -0.36
20 0.28
21 0.03
22 -0.15
23 -0.15
24 -0.15
25 -0.15
26 0.08
27 0.15
3 -0.53
34 0.15
35 0.15
36 0.45
37 0.15
38 0.15
4 -0.57
42 0.15
43 0.15
44 0.15
45 0.15
46 0.45
5 -0.53
6 0.42
7 -0.29
8 0.03
9 0.08

> <PUBCHEM_PHARMACOPHORE_FEATURES>
9
1 1 acceptor
1 2 acceptor
1 3 donor
1 4 acceptor
1 5 donor
3 6 10 11 hydrophobe
6 1 6 7 8 9 12 rings
6 21 22 23 24 25 26 rings
6 8 9 13 14 15 16 rings

> <PUBCHEM_SHAPE_FINGERPRINT>
10 15 12823291317174802610
10674148 151 18261109656386096889
10692045 39 10015044010358879036
12236239 1 16200431394351409523
12422481 6 14261090743487137461
12596602 18 15913332407223100394
12616971 3 15339109127507952432
12760667 363 18343023289402546771
12788726 201 17749097851559624521
12954195 1 18260824857136470557
13140716 1 12606267620856912255
13402501 40 18343022198671296742
13533116 47 17560518508046123880
13540713 5 17170658991933243992
13668630 136 18272369788941098194
13673619 4 18272371966837391160
13685833 64 18131632292195821490
13782708 43 18342452643258224874
13914758 101 17131839746878761737
14251764 30 18272367581332715310
14294032 229 17533494535065740605
14347332 77 18188762839186990178
14508225 48 18113338626049065044
14556957 393 17023477360611604012
14849402 71 14691982801938289146
15183329 4 16660363675545574334
15475509 8 18260547819082509821
15510800 12 18341059613312979743
15575132 122 14056987313765988319
16994733 274 12468622929592786599
17492 89 17757553328565143971
17870717 6 18040718069378087147
1813 80 17274835670171542488
18643901 69 18337962198894025830
19784866 240 18201723967795817777
19958102 18 17240475876090280666
2026 5 18266741269614899226
21267235 1 17822291336542343531
21307412 95 18261954145925912783
21424621 283 8574444144176252023
21623969 137 17632297865692283582
21637258 2 17775279491185842731
2297311 6 18187365419620916861
23198884 109 15213018254108662779
23559900 14 17750232676192281805
2838139 119 12612743618820218982
2916195 48 9007066763969874043
3004659 81 17603304877706775892
335352 9 17967806164249575063
437815 12 18342174483848580321
5104073 3 13470105463099876070
56616090 284 18040435498936666273
59755656 215 18186799166970040210
6608658 132 15647047119066873038

> <PUBCHEM_SHAPE_MULTIPOLES>
505.72
17.24
2.58
1.58
16.11
2.05
0.16
-14.78
-4.45
-1.2
-0.94
-0.13
-0.08
1.46

> <PUBCHEM_SHAPE_SELFOVERLAP>
1102.423

> <PUBCHEM_SHAPE_VOLUME>
276.4

> <RelativeEnergy>
0

> <StereoisomerIndex>
1

> <TautomerIndex>
2

> <LibDock Warning>
no hit found

> <ErrorText>
LibDock failed

$$$$
10947890
  SciTegic09112317153D

 41 42  0  0  0  0            999 V2000
   -0.8860    5.1510   -1.5350 O   0  0  0  1  0  0
    1.0550    2.9090    2.3320 O   0  0  0  1  0  0
    0.2090    5.1700    0.9980 O   0  0  0  1  0  0
    2.0550   -0.9100   -1.1890 O   0  0  0  1  0  0
    0.4960   -4.3520   -1.7860 O   0  5  0  1  0  0
   -0.3810   -6.2010   -1.1520 O   0  0  0  1  0  0
    1.0810   -2.6110    0.0880 N   0  0  0  1  0  0
   -0.2120    1.5940   -0.8630 C   0  0  0  1  0  0
    0.3780    1.6740    0.4890 C   0  0  0  1  0  0
   -0.6360    2.8430   -1.5270 C   0  0  0  1  0  0
   -0.4980    4.0380   -0.9180 C   0  0  0  1  0  0
    0.5230    2.8600    1.1130 C   0  0  0  1  0  0
    0.0870    4.1040    0.4420 C   0  0  0  1  0  0
   -0.0250   -3.1350    0.7100 C   0  0  0  1  0  0
   -0.3600    0.4070   -1.4770 C   0  0  0  1  0  0
   -0.6580   -4.3050    0.2250 C   0  0  0  1  0  0
   -0.2160   -0.8460   -0.7270 C   0  0  0  1  0  0
   -0.5350   -2.4900    1.8540 C   0  0  0  1  0  0
    0.9810   -1.4460   -0.6180 C   0  0  0  1  0  0
   -1.7900   -4.8120    0.8900 C   0  0  0  1  0  0
   -1.6650   -3.0030    2.5110 C   0  0  0  1  0  0
   -2.2930   -4.1630    2.0310 C   0  0  0  1  0  0
   -0.1530   -5.0250   -0.9860 C   0  0  0  1  0  0
   -1.4220    4.8960   -2.8250 C   0  0  0  1  0  0
    0.5030    1.9350    3.2040 C   0  0  0  1  0  0
    0.7020    0.7710    0.9870 H   0  0  0  1  0  0
   -1.0660    2.8040   -2.5210 H   0  0  0  1  0  0
   -0.5880    0.2940   -2.5270 H   0  0  0  1  0  0
   -1.0350   -1.3510   -0.2320 H   0  0  0  1  0  0
   -0.0680   -1.5950    2.2420 H   0  0  0  1  0  0
   -2.2810   -5.7040    0.5300 H   0  0  0  1  0  0
   -2.0520   -2.5040    3.3880 H   0  0  0  1  0  0
   -3.1600   -4.5560    2.5360 H   0  0  0  1  0  0
   -1.7640    5.7600   -3.3920 H   0  0  0  1  0  0
   -2.2680    4.2150   -2.7140 H   0  0  0  1  0  0
   -0.6610    4.3860   -3.4170 H   0  0  0  1  0  0
    0.7050    2.2410    4.2300 H   0  0  0  1  0  0
   -0.5460    1.7960    2.9400 H   0  0  0  1  0  0
    1.0180    0.9890    3.0310 H   0  0  0  1  0  0
    1.9600   -3.0820    0.1510 H   0  0  0  1  0  0
    1.9530   -0.1340   -1.7540 H   0  0  0  1  0  0
  1 11  1  0
  1 24  1  0
  2 12  1  0
  2 25  1  0
  3 13  2  0
  4 19  1  0
  4 41  1  0
  5 23  1  0
  6 23  2  0
  7 14  1  0
  7 19  1  0
  7 40  1  0
  8  9  1  0
  8 10  1  0
  8 15  2  0
  9 12  2  0
  9 26  1  0
 10 11  2  0
 10 27  1  0
 11 13  1  0
 12 13  1  0
 14 16  2  0
 14 18  1  0
 15 17  1  0
 15 28  1  0
 16 20  1  0
 16 23  1  0
 17 19  2  0
 17 29  1  0
 18 21  2  0
 18 30  1  0
 20 22  2  0
 20 31  1  0
 21 22  1  0
 21 32  1  0
 22 33  1  0
 24 34  1  0
 24 35  1  0
 24 36  1  0
 25 37  1  0
 25 38  1  0
 25 39  1  0
M  CHG  1   5  -1
M  END
> <Name>
10947890

> <AbsoluteEnergy>
61.5527

> <ConfNumber>
1

> <Ionization pH>
7.5

> <IonizationIndex>
1

> <NumberOfIonizations>
1

> <NumberOfStereoisomers>
1

> <NumberOfTautomers>
3

> <OBJECTID>
9223374175751831565

> <PUBCHEM_ATOM_DEF_STEREO_COUNT>
0

> <PUBCHEM_ATOM_UDEF_STEREO_COUNT>
0

> <PUBCHEM_BOND_DEF_STEREO_COUNT>
1

> <PUBCHEM_BOND_UDEF_STEREO_COUNT>
0

> <PUBCHEM_CACTVS_TAUTO_COUNT>
6

> <PUBCHEM_COMPONENT_COUNT>
1

> <PUBCHEM_COMPOUND_CID>
10947890

> <PUBCHEM_CONFORMER_DIVERSEORDER>
1
7
17
13
9
10
16
12
4
15
11
18
3
5
2
19
8
6
14

> <PUBCHEM_CONFORMER_ID>
00A70D3200000001

> <PUBCHEM_CONFORMER_RMSD>
0.8

> <PUBCHEM_COORDINATE_TYPE>
2
5
10

> <PUBCHEM_EFFECTIVE_ROTOR_COUNT>
7

> <PUBCHEM_FEATURE_SELFOVERLAP>
50.805

> <PUBCHEM_HEAVY_ATOM_COUNT>
25

> <PUBCHEM_ISOTOPIC_ATOM_COUNT>
0

> <PUBCHEM_MMFF94_ENERGY>
99.8219

> <PUBCHEM_MMFF94_PARTIAL_CHARGES>
36
1 -0.36
10 -0.15
11 0.08
12 0.08
13 0.08
14 0.12
15 -0.18
16 0.09
17 -0.14
18 -0.15
19 0.62
2 -0.36
20 -0.15
21 -0.15
22 -0.15
23 0.63
24 0.28
25 0.28
26 0.15
27 0.15
28 0.15
29 0.37
3 -0.53
30 0.15
31 0.15
32 0.15
33 0.15
34 0.15
35 0.45
4 -0.57
42 0.5
5 -0.65
6 -0.57
7 -0.55
8 0.03
9 -0.15

> <PUBCHEM_PHARMACOPHORE_FEATURES>
10
1 1 acceptor
1 2 acceptor
1 3 donor
1 4 acceptor
1 5 acceptor
1 6 acceptor
1 7 donor
3 5 6 23 anion
6 14 16 18 20 21 22 rings
6 8 9 10 11 12 13 rings

> <PUBCHEM_SHAPE_FINGERPRINT>
10299344 5 18412547608998257657
10595046 47 18410012130531072761
11135609 149 16445009939706308050
11315181 36 17132113555117660249
11524674 6 16774076280813467173
117089 54 17831022695628712115
11719270 70 18409725150303068282
11756154 67 17548700682267908966
11796584 16 18131352985834691063
12107183 9 17691971462133637609
12236239 1 18408041814236631413
12788726 201 17632301116549964833
12821665 9 18190748728595445077
13167823 11 18412541020244105987
13533116 47 18340205194040565488
14251764 18 18202284706690453105
14528608 73 18408608089106624116
15183329 4 18410851041176533075
15196674 1 18412260636247266715
15250474 111 18340755005589392503
15537594 2 18201716288273142367
15799311 1 18339654368711242227
17844677 252 18413393137566693025
17857418 61 18341045237871901347
19427546 62 18188495787116634664
20511986 3 18410000035992708037
21033648 29 14261064321117156985
220451 1 18342182167487044049
22950370 63 18411980260771647377
23522609 53 18198933372815027944
23559900 14 18272078457468150393
239999 70 18201442446318395550
3004659 81 18409166572161870578
335352 9 18342453769362647917
338550 245 18409730672665783198
4073 2 18187369860643579107
4214541 1 18413669106695633649
4325135 7 18407761447720212004
5104073 3 18201997729190516209
559249 180 18341327817393555213
6025842 7 18335423440010400902
999808 66 18114474439779072579

> <PUBCHEM_SHAPE_MULTIPOLES>
474.29
18.84
3.1
0.82
2.13
2.29
-0.18
-1.94
-2.69
-0.77
-0.02
-0.45
-0.09
-2.32

> <PUBCHEM_SHAPE_SELFOVERLAP>
1015.221

> <PUBCHEM_SHAPE_VOLUME>
261.9

> <RelativeEnergy>
0

> <StereoisomerIndex>
1

> <TautomerIndex>
3

> <LibDock Warning>
no hit found

> <ErrorText>
LibDock failed

$$$$
11024779
  SciTegic09112317153D

 42 43  0  0  0  0            999 V2000
    5.0230    2.6940   -0.5730 O   0  0  0  1  0  0
    0.7990    4.6880   -1.2830 O   0  0  0  1  0  0
    3.5170    4.8970   -1.1420 O   0  0  0  1  0  0
   -5.0530   -6.2140    0.5380 O   0  0  0  1  0  0
   -0.3850   -2.4150    0.1460 O   0  0  0  1  0  0
   -2.5920   -1.1680    2.3600 O   0  5  0  1  0  0
   -2.8220   -2.8890    3.6160 O   0  0  0  1  0  0
   -2.3740   -1.4530   -0.1910 N   0  0  0  1  0  0
    1.6850    1.2500   -0.4920 C   0  0  0  1  0  0
   -3.0390   -2.6350    0.0140 C   0  0  0  1  0  0
    0.9100    2.3860   -0.7850 C   0  0  0  1  0  0
    3.0850    1.3570   -0.4210 C   0  0  0  1  0  0
    3.7100    2.5980   -0.6410 C   0  0  0  1  0  0
    1.5310    3.6260   -1.0060 C   0  0  0  1  0  0
    2.9320    3.7340   -0.9350 C   0  0  0  1  0  0
   -3.3070   -3.1130    1.3190 C   0  0  0  1  0  0
    1.0240   -0.0680   -0.2550 C   0  0  0  1  0  0
   -3.4620   -3.3840   -1.1010 C   0  0  0  1  0  0
   -3.9920   -4.3310    1.4890 C   0  0  0  1  0  0
   -0.3170   -0.1390   -0.3310 C   0  0  0  1  0  0
   -1.0110   -1.4130   -0.1090 C   0  0  0  1  0  0
   -4.4110   -5.0740    0.3730 C   0  0  0  1  0  0
   -4.1450   -4.5970   -0.9220 C   0  0  0  1  0  0
   -2.8770   -2.3530    2.5360 C   0  0  0  1  0  0
    5.6130    3.9640   -0.7960 C   0  0  0  1  0  0
    0.3460    5.4850   -0.1960 C   0  0  0  1  0  0
   -0.1660    2.3110   -0.8430 H   0  0  0  1  0  0
    3.6880    0.4890   -0.1940 H   0  0  0  1  0  0
    1.5230   -0.9960   -0.0260 H   0  0  0  1  0  0
   -3.2690   -3.0380   -2.1080 H   0  0  0  1  0  0
   -4.2000   -4.7030    2.4810 H   0  0  0  1  0  0
   -0.9540    0.7040   -0.5530 H   0  0  0  1  0  0
   -4.4660   -5.1660   -1.7830 H   0  0  0  1  0  0
    6.6990    4.0190   -0.7350 H   0  0  0  1  0  0
    5.2020    4.6630   -0.0660 H   0  0  0  1  0  0
    5.3170    4.3080   -1.7870 H   0  0  0  1  0  0
   -0.5210    4.9950    0.2480 H   0  0  0  1  0  0
    1.1900    5.6680    0.4680 H   0  0  0  1  0  0
    0.0190    6.4460   -0.5940 H   0  0  0  1  0  0
    3.0420    5.5870   -1.6250 H   0  0  0  1  0  0
   -5.3350   -6.7140   -0.2370 H   0  0  0  1  0  0
   -2.8870   -0.6200   -0.4020 H   0  0  0  1  0  0
  1 13  1  0
  1 25  1  0
  2 14  1  0
  2 26  1  0
  3 15  1  0
  3 40  1  0
  4 22  1  0
  4 41  1  0
  5 21  2  0
  6 24  1  0
  7 24  2  0
  8 10  1  0
  8 21  1  0
  8 42  1  0
  9 11  2  0
  9 12  1  0
  9 17  1  0
 10 16  2  0
 10 18  1  0
 11 14  1  0
 11 27  1  0
 12 13  2  0
 12 28  1  0
 13 15  1  0
 14 15  2  0
 16 19  1  0
 16 24  1  0
 17 20  2  0
 17 29  1  0
 18 23  2  0
 18 30  1  0
 19 22  2  0
 19 31  1  0
 20 21  1  0
 20 32  1  0
 22 23  1  0
 23 33  1  0
 25 34  1  0
 25 35  1  0
 25 36  1  0
 26 37  1  0
 26 38  1  0
 26 39  1  0
M  CHG  1   6  -1
M  END
> <Name>
11024779

> <AbsoluteEnergy>
71.8514

> <ConfNumber>
1

> <Ionization pH>
7.5

> <IonizationIndex>
1

> <NumberOfIonizations>
1

> <NumberOfStereoisomers>
1

> <NumberOfTautomers>
3

> <OBJECTID>
9223374180046798861

> <PUBCHEM_ATOM_DEF_STEREO_COUNT>
0

> <PUBCHEM_ATOM_UDEF_STEREO_COUNT>
0

> <PUBCHEM_BOND_DEF_STEREO_COUNT>
1

> <PUBCHEM_BOND_UDEF_STEREO_COUNT>
0

> <PUBCHEM_CACTVS_TAUTO_COUNT>
16

> <PUBCHEM_COMPONENT_COUNT>
1

> <PUBCHEM_COMPOUND_CID>
11024779

> <PUBCHEM_CONFORMER_DIVERSEORDER>
1
8
15
12
18
4
13
3
19
14
10
6
17
2
5
16
9
11
7

> <PUBCHEM_CONFORMER_ID>
00A8398B00000001

> <PUBCHEM_CONFORMER_RMSD>
0.8

> <PUBCHEM_COORDINATE_TYPE>
2
5
10

> <PUBCHEM_EFFECTIVE_ROTOR_COUNT>
7

> <PUBCHEM_FEATURE_SELFOVERLAP>
55.881

> <PUBCHEM_HEAVY_ATOM_COUNT>
26

> <PUBCHEM_ISOTOPIC_ATOM_COUNT>
0

> <PUBCHEM_MMFF94_ENERGY>
102.9955

> <PUBCHEM_MMFF94_PARTIAL_CHARGES>
37
1 -0.36
10 0.12
11 -0.15
12 -0.15
13 0.08
14 0.08
15 0.08
16 0.09
17 -0.18
18 -0.15
19 -0.15
2 -0.36
20 -0.14
21 0.62
22 0.08
23 -0.15
24 0.63
25 0.28
26 0.28
27 0.15
28 0.15
29 0.15
3 -0.53
30 0.37
31 0.15
32 0.15
33 0.15
34 0.15
35 0.45
4 -0.53
42 0.45
43 0.5
5 -0.57
6 -0.65
7 -0.57
8 -0.55
9 0.03

> <PUBCHEM_PHARMACOPHORE_FEATURES>
11
1 1 acceptor
1 2 acceptor
1 3 donor
1 4 donor
1 5 acceptor
1 6 acceptor
1 7 acceptor
1 8 donor
3 6 7 24 anion
6 10 16 18 19 22 23 rings
6 9 11 12 13 14 15 rings

> <PUBCHEM_SHAPE_FINGERPRINT>
10299344 5 18411138034980705033
10462674 296 17044018758860182402
10595046 47 18409449197868342376
11315181 36 17275386534445390385
11524674 6 17060336336391497071
11796584 16 18131071545318094998
12107183 9 17836650716922983520
12236239 1 18333449858749855197
12788726 201 17632583708149613657
13167823 11 18410289224535529539
13533116 47 18341330003125876712
14251764 18 18272652359840902801
14933364 13 18408323289287292465
15001296 14 18260824865178188683
15183329 4 18412543197987509225
15250474 111 18341599460536816430
15799311 1 18341062851506460242
17844677 252 18412267237417205281
17857418 61 18341890779456600474
19427546 62 18188494696284631776
21033648 29 13829847959341342073
220451 1 18341900700868126929
23522609 53 18198650798442753560
23559900 14 18271516611305493401
255183 451 18125447398347543150
3004659 81 18336263458093253234
335352 9 18413385463409356661
4073 2 18114186375294050426
4214541 1 18412260645069257993
4325135 7 18334858325051064996
5104073 3 18272366477415188715
559249 180 18412821392068297327
59755656 520 17240199941700048795
6025842 7 18408326571501610540
6437827 68 18342173332718353403
999808 66 18041008371319563883

> <PUBCHEM_SHAPE_MULTIPOLES>
489
20.44
3.06
0.8
3.2
2.4
-0.17
-1.67
-2.41
-1.32
-0.42
-0.78
-0.1
-1.58

> <PUBCHEM_SHAPE_SELFOVERLAP>
1047.846

> <PUBCHEM_SHAPE_VOLUME>
269.9

> <RelativeEnergy>
0

> <StereoisomerIndex>
1

> <TautomerIndex>
1

> <LibDock Warning>
no hit found

> <ErrorText>
LibDock failed

$$$$
11024779
  SciTegic09112317153D

 42 43  0  0  0  0            999 V2000
   -0.2740   -4.5520    1.4310 O   0  0  0  1  0  0
   -2.5390   -4.5860   -2.7170 O   0  0  0  1  0  0
   -1.6520   -5.9070   -0.4980 O   0  0  0  1  0  0
    2.0940    7.6400    0.1740 O   0  0  0  1  0  0
   -0.0910    2.3430   -1.3110 O   0  0  0  1  0  0
    0.0080    4.9140    3.7160 O   0  5  0  1  0  0
   -0.0140    2.8780    3.0470 O   0  0  0  1  0  0
    0.9760    2.2670    0.6840 N   0  0  0  1  0  0
   -0.9090   -1.8650   -0.9360 C   0  0  0  1  0  0
    1.2450    3.6100    0.5800 C   0  0  0  1  0  0
   -1.6200   -2.5640   -1.9300 C   0  0  0  1  0  0
   -0.4530   -2.5450    0.2060 C   0  0  0  1  0  0
   -0.7040   -3.9190    0.3560 C   0  0  0  1  0  0
   -1.8720   -3.9380   -1.7830 C   0  0  0  1  0  0
   -1.4140   -4.6170   -0.6390 C   0  0  0  1  0  0
    0.9130    4.5110    1.6180 C   0  0  0  1  0  0
   -0.6410   -0.4040   -1.0970 C   0  0  0  1  0  0
    1.8650    4.0920   -0.5900 C   0  0  0  1  0  0
    1.2040    5.8810    1.4740 C   0  0  0  1  0  0
    0.0380    0.2360   -0.1320 C   0  0  0  1  0  0
    0.3260    1.6710   -0.2440 C   0  0  0  1  0  0
    1.8230    6.3560    0.3050 C   0  0  0  1  0  0
    2.1510    5.4600   -0.7240 C   0  0  0  1  0  0
    0.2530    4.0460    2.8800 C   0  0  0  1  0  0
    0.0870   -5.9190    1.2990 C   0  0  0  1  0  0
   -3.9150   -4.8560   -2.4910 C   0  0  0  1  0  0
   -1.9730   -2.0470   -2.8120 H   0  0  0  1  0  0
    0.0930   -2.0160    0.9720 H   0  0  0  1  0  0
   -0.9460    0.2090   -1.9310 H   0  0  0  1  0  0
    2.1280    3.4220   -1.3960 H   0  0  0  1  0  0
    0.9530    6.5750    2.2630 H   0  0  0  1  0  0
    0.4090   -0.2420    0.7640 H   0  0  0  1  0  0
    2.6270    5.8220   -1.6240 H   0  0  0  1  0  0
    0.6840   -6.3460    2.1050 H   0  0  0  1  0  0
    0.6450   -6.0380    0.3710 H   0  0  0  1  0  0
   -0.8290   -6.5070    1.2160 H   0  0  0  1  0  0
   -3.9880   -5.7240   -1.8350 H   0  0  0  1  0  0
   -4.3870   -3.9410   -2.1330 H   0  0  0  1  0  0
   -4.3720   -5.1190   -3.4430 H   0  0  0  1  0  0
   -2.5380   -6.2000   -0.2560 H   0  0  0  1  0  0
    2.5190    7.9550   -0.6330 H   0  0  0  1  0  0
   -0.2620    3.2910   -1.2350 H   0  0  0  1  0  0
  1 13  1  0
  1 25  1  0
  2 14  1  0
  2 26  1  0
  3 15  1  0
  3 40  1  0
  4 22  1  0
  4 41  1  0
  5 21  1  0
  5 42  1  0
  6 24  1  0
  7 24  2  0
  8 10  1  0
  8 21  2  0
  9 11  2  0
  9 12  1  0
  9 17  1  0
 10 16  2  0
 10 18  1  0
 11 14  1  0
 11 27  1  0
 12 13  2  0
 12 28  1  0
 13 15  1  0
 14 15  2  0
 16 19  1  0
 16 24  1  0
 17 20  2  0
 17 29  1  0
 18 23  2  0
 18 30  1  0
 19 22  2  0
 19 31  1  0
 20 21  1  0
 20 32  1  0
 22 23  1  0
 23 33  1  0
 25 34  1  0
 25 35  1  0
 25 36  1  0
 26 37  1  0
 26 38  1  0
 26 39  1  0
M  CHG  1   6  -1
M  END
> <Name>
11024779

> <AbsoluteEnergy>
77.5472

> <ConfNumber>
1

> <Ionization pH>
7.5

> <IonizationIndex>
1

> <NumberOfIonizations>
1

> <NumberOfStereoisomers>
1

> <NumberOfTautomers>
3

> <OBJECTID>
9223374184341766157

> <PUBCHEM_ATOM_DEF_STEREO_COUNT>
0

> <PUBCHEM_ATOM_UDEF_STEREO_COUNT>
0

> <PUBCHEM_BOND_DEF_STEREO_COUNT>
1

> <PUBCHEM_BOND_UDEF_STEREO_COUNT>
0

> <PUBCHEM_CACTVS_TAUTO_COUNT>
16

> <PUBCHEM_COMPONENT_COUNT>
1

> <PUBCHEM_COMPOUND_CID>
11024779

> <PUBCHEM_CONFORMER_DIVERSEORDER>
1
8
15
12
18
4
13
3
19
14
10
6
17
2
5
16
9
11
7

> <PUBCHEM_CONFORMER_ID>
00A8398B00000001

> <PUBCHEM_CONFORMER_RMSD>
0.8

> <PUBCHEM_COORDINATE_TYPE>
2
5
10

> <PUBCHEM_EFFECTIVE_ROTOR_COUNT>
7

> <PUBCHEM_FEATURE_SELFOVERLAP>
55.881

> <PUBCHEM_HEAVY_ATOM_COUNT>
26

> <PUBCHEM_ISOTOPIC_ATOM_COUNT>
0

> <PUBCHEM_MMFF94_ENERGY>
102.9955

> <PUBCHEM_MMFF94_PARTIAL_CHARGES>
37
1 -0.36
10 0.12
11 -0.15
12 -0.15
13 0.08
14 0.08
15 0.08
16 0.09
17 -0.18
18 -0.15
19 -0.15
2 -0.36
20 -0.14
21 0.62
22 0.08
23 -0.15
24 0.63
25 0.28
26 0.28
27 0.15
28 0.15
29 0.15
3 -0.53
30 0.37
31 0.15
32 0.15
33 0.15
34 0.15
35 0.45
4 -0.53
42 0.45
43 0.5
5 -0.57
6 -0.65
7 -0.57
8 -0.55
9 0.03

> <PUBCHEM_PHARMACOPHORE_FEATURES>
11
1 1 acceptor
1 2 acceptor
1 3 donor
1 4 donor
1 5 acceptor
1 6 acceptor
1 7 acceptor
1 8 donor
3 6 7 24 anion
6 10 16 18 19 22 23 rings
6 9 11 12 13 14 15 rings

> <PUBCHEM_SHAPE_FINGERPRINT>
10299344 5 18411138034980705033
10462674 296 17044018758860182402
10595046 47 18409449197868342376
11315181 36 17275386534445390385
11524674 6 17060336336391497071
11796584 16 18131071545318094998
12107183 9 17836650716922983520
12236239 1 18333449858749855197
12788726 201 17632583708149613657
13167823 11 18410289224535529539
13533116 47 18341330003125876712
14251764 18 18272652359840902801
14933364 13 18408323289287292465
15001296 14 18260824865178188683
15183329 4 18412543197987509225
15250474 111 18341599460536816430
15799311 1 18341062851506460242
17844677 252 18412267237417205281
17857418 61 18341890779456600474
19427546 62 18188494696284631776
21033648 29 13829847959341342073
220451 1 18341900700868126929
23522609 53 18198650798442753560
23559900 14 18271516611305493401
255183 451 18125447398347543150
3004659 81 18336263458093253234
335352 9 18413385463409356661
4073 2 18114186375294050426
4214541 1 18412260645069257993
4325135 7 18334858325051064996
5104073 3 18272366477415188715
559249 180 18412821392068297327
59755656 520 17240199941700048795
6025842 7 18408326571501610540
6437827 68 18342173332718353403
999808 66 18041008371319563883

> <PUBCHEM_SHAPE_MULTIPOLES>
489
20.44
3.06
0.8
3.2
2.4
-0.17
-1.67
-2.41
-1.32
-0.42
-0.78
-0.1
-1.58

> <PUBCHEM_SHAPE_SELFOVERLAP>
1047.846

> <PUBCHEM_SHAPE_VOLUME>
269.9

> <RelativeEnergy>
0

> <StereoisomerIndex>
1

> <TautomerIndex>
2

> <LibDock Warning>
no hit found

> <ErrorText>
LibDock failed

$$$$
11046840
  SciTegic09112317153D

 51 53  0  0  0  0            999 V2000
   -4.4500   -0.9490   -0.3570 O   0  0  0  1  0  0
   -1.8420    2.9200   -0.9170 O   0  0  0  1  0  0
    0.2240   -1.3420   -0.0780 O   0  0  0  1  0  0
    0.7060    2.8320   -0.7930 O   0  0  0  1  0  0
    7.6810   -1.5780    0.6700 O   0  0  0  1  0  0
   -5.6730   -0.2130   -0.2180 C   0  0  0  1  0  0
   -5.6570    0.9730   -1.1910 C   0  0  0  1  0  0
   -4.4490    1.8680   -0.9030 C   0  0  0  1  0  0
   -3.1940    1.0520   -0.6690 C   0  0  0  1  0  0
   -3.2810   -0.2780   -0.4270 C   0  0  0  1  0  0
   -6.8230   -1.1690   -0.5480 C   0  0  0  1  0  0
   -5.7990    0.2510    1.2380 C   0  0  0  1  0  0
   -1.8790    1.7290   -0.7180 C   0  0  0  1  0  0
   -2.0470   -1.0650   -0.2340 C   0  0  0  1  0  0
   -0.6360    0.9330   -0.5200 C   0  0  0  1  0  0
   -0.8110   -0.5270   -0.2700 C   0  0  0  1  0  0
    0.5870    1.5240   -0.5670 C   0  0  0  1  0  0
    1.8440    0.7830   -0.3760 C   0  0  0  1  0  0
    0.0640   -2.1570    1.0740 C   0  0  0  1  0  0
    2.9670    1.4210   -0.0110 C   0  0  0  1  0  0
    4.2180    0.6250    0.1690 C   0  0  0  1  0  0
    5.3570    1.2220    0.7390 C   0  0  0  1  0  0
    4.2590   -0.7220   -0.2280 C   0  0  0  1  0  0
    6.5340    0.4730    0.9100 C   0  0  0  1  0  0
    5.4360   -1.4700   -0.0590 C   0  0  0  1  0  0
    6.5760   -0.8750    0.5110 C   0  0  0  1  0  0
    8.8050   -0.9300    1.2500 C   0  0  0  1  0  0
   -6.5790    1.5500   -1.1210 H   0  0  0  1  0  0
   -5.5960    0.6040   -2.2160 H   0  0  0  1  0  0
   -4.2990    2.5640   -1.7300 H   0  0  0  1  0  0
   -4.6400    2.4730   -0.0160 H   0  0  0  1  0  0
   -6.7180   -1.6030   -1.5420 H   0  0  0  1  0  0
   -7.7790   -0.6480   -0.5100 H   0  0  0  1  0  0
   -6.8600   -1.9890    0.1720 H   0  0  0  1  0  0
   -4.8450    0.5980    1.6370 H   0  0  0  1  0  0
   -6.1500   -0.5610    1.8730 H   0  0  0  1  0  0
   -6.5130    1.0730    1.3210 H   0  0  0  1  0  0
   -2.1450   -2.1270   -0.0540 H   0  0  0  1  0  0
    1.9420   -0.2840   -0.5130 H   0  0  0  1  0  0
    1.0230   -2.2150    1.5880 H   0  0  0  1  0  0
   -0.7720   -1.7680    1.6530 H   0  0  0  1  0  0
   -0.2000   -3.1630    0.7460 H   0  0  0  1  0  0
    3.0450    2.4830    0.1690 H   0  0  0  1  0  0
    5.3350    2.2580    1.0480 H   0  0  0  1  0  0
    3.3880   -1.1910   -0.6670 H   0  0  0  1  0  0
    7.4060    0.9360    1.3460 H   0  0  0  1  0  0
    5.4640   -2.5040   -0.3660 H   0  0  0  1  0  0
    9.7050   -1.5320    1.3710 H   0  0  0  1  0  0
    8.5150   -0.5600    2.2330 H   0  0  0  1  0  0
    9.0600   -0.0700    0.6300 H   0  0  0  1  0  0
    0.2040    3.2350   -1.5120 H   0  0  0  1  0  0
  1  6  1  0
  1 10  1  0
  2 13  2  0
  3 16  1  0
  3 19  1  0
  4 17  1  0
  4 51  1  0
  5 26  1  0
  5 27  1  0
  6  7  1  0
  6 11  1  0
  6 12  1  0
  7  8  1  0
  7 28  1  0
  7 29  1  0
  8  9  1  0
  8 30  1  0
  8 31  1  0
  9 10  2  0
  9 13  1  0
 10 14  1  0
 11 32  1  0
 11 33  1  0
 11 34  1  0
 12 35  1  0
 12 36  1  0
 12 37  1  0
 13 15  1  0
 14 16  2  0
 14 38  1  0
 15 16  1  0
 15 17  2  0
 17 18  1  0
 18 20  2  0
 18 39  1  0
 19 40  1  0
 19 41  1  0
 19 42  1  0
 20 21  1  0
 20 43  1  0
 21 22  2  0
 21 23  1  0
 22 24  1  0
 22 44  1  0
 23 25  2  0
 23 45  1  0
 24 26  2  0
 24 46  1  0
 25 26  1  0
 25 47  1  0
 27 48  1  0
 27 49  1  0
 27 50  1  0
M  END
> <Name>
11046840

> <AbsoluteEnergy>
67.9071

> <ConfNumber>
1

> <Ionization pH>
7.5

> <IonizationIndex>
1

> <NumberOfIonizations>
1

> <NumberOfStereoisomers>
1

> <NumberOfTautomers>
2

> <OBJECTID>
9223374197226668045

> <PUBCHEM_ATOM_DEF_STEREO_COUNT>
0

> <PUBCHEM_ATOM_UDEF_STEREO_COUNT>
0

> <PUBCHEM_BOND_DEF_STEREO_COUNT>
1

> <PUBCHEM_BOND_UDEF_STEREO_COUNT>
0

> <PUBCHEM_CACTVS_TAUTO_COUNT>
5

> <PUBCHEM_COMPONENT_COUNT>
1

> <PUBCHEM_COMPOUND_CID>
11046840

> <PUBCHEM_CONFORMER_DIVERSEORDER>
7
28
8
4
12
9
21
14
25
6
13
2
23
26
22
10
11
18
19
1
24
20
3
17
16
5
27
15

> <PUBCHEM_CONFORMER_ID>
00A88FB800000007

> <PUBCHEM_CONFORMER_RMSD>
0.8

> <PUBCHEM_COORDINATE_TYPE>
2
5
10

> <PUBCHEM_EFFECTIVE_ROTOR_COUNT>
5.8

> <PUBCHEM_FEATURE_SELFOVERLAP>
45.701

> <PUBCHEM_HEAVY_ATOM_COUNT>
27

> <PUBCHEM_ISOTOPIC_ATOM_COUNT>
0

> <PUBCHEM_MMFF94_ENERGY>
109.5667

> <PUBCHEM_MMFF94_PARTIAL_CHARGES>
32
1 -0.36
10 0.08
13 0.08
14 -0.15
15 0.09
16 0.08
17 0.47
18 -0.14
19 0.28
2 -0.53
20 -0.18
21 0.03
22 -0.15
23 -0.15
24 -0.15
25 -0.15
26 0.08
27 0.28
3 -0.36
38 0.15
39 0.45
4 -0.57
40 0.15
44 0.15
45 0.15
46 0.15
47 0.15
48 0.15
5 -0.36
6 0.28
8 0.14
9 -0.14

> <PUBCHEM_PHARMACOPHORE_FEATURES>
9
1 1 acceptor
1 2 donor
1 3 acceptor
1 4 acceptor
1 5 acceptor
3 6 11 12 hydrophobe
6 1 6 7 8 9 10 rings
6 21 22 23 24 25 26 rings
6 9 10 13 14 15 16 rings

> <PUBCHEM_SHAPE_FINGERPRINT>
10 15 17240208737597969804
10074138 170 17458915945569456339
10319926 262 17895201030100197866
10554248 39 17203336602940173196
10670039 82 13470699139665668232
10692045 39 17970339330975497938
12035758 1 17967543363237168965
12236239 1 16630526202558487039
12403259 118 18262242252178478942
12422481 6 16009307583310738923
12596602 18 14996289097604921612
12633257 1 17603592949384053310
12838862 33 17676203551755259293
12895837 130 18059852921596779348
13140716 1 17170147883126069509
13402501 40 18343302552603449336
13668630 136 8142084260543705780
13690498 29 15840684414686178357
13911987 19 15482673472731582095
14020679 6 18113338643344666984
14251764 30 11025798699810812532
14556957 393 14836133168861560816
15064981 194 16414637227498978153
15082195 135 14908180876749714792
15183329 4 15123791777587040820
15326921 28 16951663832122033421
15575132 122 17203331044656841081
16110190 28 17603870056870011388
16988056 13 12592580564522125986
16994733 274 18059573534659814769
17980427 23 18040724705192439063
1813 80 13118289122649563646
18643901 69 10087648117008661153
19377110 9 15502376768688840380
19438510 23 18411698781594688266
19784866 240 10809351031263512247
20028762 73 12468354644503365856
2026 5 11097866202951314129
20554085 129 17895178975485181389
20642791 239 16343694448326847147
21033648 29 18411698825024363030
21267235 1 12822999921472140429
21298829 104 17846781806129997928
21304303 64 17988929959609019265
21307412 95 10951756483491604245
21401589 2 18335417950467281227
21424621 283 18338241453499342497
22122407 14 18059862800364549248
22224240 67 18041002817668249995
2748736 6 18131626794928099584
2838139 119 18059293158424416053
2916195 48 18409732816344690757
3004659 81 14261343648494252354
474113 269 13912608299266258761
5104073 3 17096360631641396241
5364581 5 17825671320690172220
54039377 194 13262668211623733592
56616090 284 12967123909039336423
5718773 13 10953724605168513984
59682541 35 18336276691335878977
6608658 132 15482685567174923842
7970288 3 11746933187997662080
999808 66 12396291552764334984

> <PUBCHEM_SHAPE_MULTIPOLES>
526.3
18.87
2.5
1.94
20.56
0.39
-0.32
-16.8
-4.67
-0.86
-1.4
-0.44
0.62
2.56

> <PUBCHEM_SHAPE_SELFOVERLAP>
1135.097

> <PUBCHEM_SHAPE_VOLUME>
290.6

> <RelativeEnergy>
0

> <StereoisomerIndex>
1

> <TautomerIndex>
2

> <LibDock Warning>
no hit found

> <ErrorText>
LibDock failed

$$$$
11566620
  SciTegic09112317153D

 47 48  0  0  0  0            999 V2000
   -0.1930   -0.8560    1.0150 O   0  0  0  1  0  0
   -0.8130   -1.0420   -1.2060 O   0  0  0  1  0  0
    0.4680   -4.9260    1.3930 O   0  0  0  1  0  0
    0.2660   -3.2260    3.7490 O   0  0  0  1  0  0
   -1.0650   -3.8680   -0.8510 O   0  0  0  1  0  0
    1.8750   -0.5820    3.1560 O   0  0  0  1  0  0
   -1.0260    3.8420   -1.8950 O   0  0  0  1  0  0
    1.3020    0.2800   -1.7130 O   0  0  0  1  0  0
   -4.7660    1.3340   -0.8440 O   0  0  0  1  0  0
   -0.2610   -3.7080    1.4330 C   0  0  1  1  0  0
    0.4030   -2.7340    2.4290 C   0  0  1  1  0  0
   -0.2910   -3.0710    0.0270 C   0  0  2  1  0  0
   -0.2370   -1.3280    2.3570 C   0  0  1  1  0  0
   -0.9010   -1.6520    0.0750 C   0  0  1  1  0  0
    0.4970   -0.2950    3.2170 C   0  0  0  1  0  0
   -1.4590    0.1220   -1.2560 C   0  0  0  1  0  0
   -0.7490    1.4010   -1.5580 C   0  0  0  1  0  0
   -2.7880    0.1130   -1.0270 C   0  0  0  1  0  0
    0.5930    1.4060   -1.7690 C   0  0  0  1  0  0
    1.3380    2.6810   -2.0770 C   0  0  0  1  0  0
   -1.5650    2.6560   -1.6140 C   0  0  0  1  0  0
   -3.5770    1.3530   -1.0660 C   0  0  0  1  0  0
   -2.8930    2.6150   -1.3790 C   0  0  0  1  0  0
    2.6540    2.4260   -2.8100 C   0  0  0  1  0  0
    1.5120    3.5670   -0.8410 C   0  0  0  1  0  0
   -1.2780   -3.9360    1.7580 H   0  0  0  1  0  0
    1.4720   -2.6530    2.2200 H   0  0  0  1  0  0
    0.7190   -3.0140   -0.3860 H   0  0  0  1  0  0
   -1.2860   -1.3670    2.6580 H   0  0  0  1  0  0
   -1.9540   -1.6760    0.3660 H   0  0  0  1  0  0
    0.1820   -0.3600    4.2600 H   0  0  0  1  0  0
    0.3420    0.7120    2.8290 H   0  0  0  1  0  0
   -3.2860   -0.8200   -0.8080 H   0  0  0  1  0  0
    0.5950    3.1060   -2.7510 H   0  0  0  1  0  0
   -3.4680    3.5290   -1.4200 H   0  0  0  1  0  0
    2.5100    1.8170   -3.7040 H   0  0  0  1  0  0
    3.3620    1.9080   -2.1640 H   0  0  0  1  0  0
    3.1130    3.3660   -3.1200 H   0  0  0  1  0  0
    0.8730    3.2230   -0.0280 H   0  0  0  1  0  0
    2.5490    3.5590   -0.5060 H   0  0  0  1  0  0
    1.2420    4.5970   -1.0670 H   0  0  0  1  0  0
    0.3580   -5.3610    2.2530 H   0  0  0  1  0  0
    1.1540   -3.4500    4.0700 H   0  0  0  1  0  0
   -0.9710   -3.4900   -1.7390 H   0  0  0  1  0  0
    2.3290    0.0800    3.7040 H   0  0  0  1  0  0
   -1.5730    4.6370   -1.8280 H   0  0  0  1  0  0
    1.4260   -0.1590   -0.8610 H   0  0  0  1  0  0
  1 13  1  0
  1 14  1  0
  2 14  1  0
  2 16  1  0
  3 10  1  0
  3 42  1  0
  4 11  1  0
  4 43  1  0
  5 12  1  0
  5 44  1  0
  6 15  1  0
  6 45  1  0
  7 21  1  0
  7 46  1  0
  8 19  1  0
  8 47  1  0
  9 22  2  0
 10 11  1  0
 10 12  1  0
 10 26  1  0
 11 13  1  0
 11 27  1  0
 12 14  1  0
 12 28  1  0
 13 15  1  0
 13 29  1  0
 14 30  1  0
 15 31  1  0
 15 32  1  0
 16 17  1  0
 16 18  2  0
 17 19  2  0
 17 21  1  0
 18 22  1  0
 18 33  1  0
 19 20  1  0
 20 24  1  0
 20 25  1  0
 20 34  1  0
 21 23  2  0
 22 23  1  0
 23 35  1  0
 24 36  1  0
 24 37  1  0
 24 38  1  0
 25 39  1  0
 25 40  1  0
 25 41  1  0
M  END
> <Name>
11566620

> <AbsoluteEnergy>
47.4177

> <ConfNumber>
1

> <Ionization pH>
7.02_PP

> <IonizationIndex>
1

> <NumberOfIonizations>
2

> <NumberOfStereoisomers>
1

> <NumberOfTautomers>
3

> <OBJECTID>
9223374244471308301

> <PUBCHEM_ATOM_DEF_STEREO_COUNT>
5

> <PUBCHEM_ATOM_UDEF_STEREO_COUNT>
0

> <PUBCHEM_BOND_DEF_STEREO_COUNT>
0

> <PUBCHEM_BOND_UDEF_STEREO_COUNT>
0

> <PUBCHEM_CACTVS_TAUTO_COUNT>
21

> <PUBCHEM_COMPONENT_COUNT>
1

> <PUBCHEM_COMPOUND_CID>
11566620

> <PUBCHEM_CONFORMER_DIVERSEORDER>
1
229
200
16
175
50
93
165
74
193
82
90
188
189
205
139
80
8
140
195
170
135
107
122
235
199
173
104
203
147
121
98
192
61
180
172
132
130
237
204
24
167
194
23
211
228
174
79
117
68
231
81
86
210
21
227
129
207
236
103
87
54
37
158
118
56
159
232
145
240
22
34
92
138
186
137
58
171
136
181
36
28
144
60
97
105
48
219
116
182
44
40
76
39
179
153
154
102
148
156
217
71
128
160
151
112
73
45
123
126
168
43
197
214
25
149
212
213
157
234
12
120
46
42
85
152
198
29
67
10
225
75
209
41
78
124
239
233
18
94
2
201
6
101
161
96
169
65
119
32
155
5
166
190
216
146
178
133
202
89
220
27
184
14
55
163
17
38
3
164
127
206
230
91
95
224
70
99
47
110
100
53
131
9
84
150
4
63
142
19
238
226
7
52
83
49
191
66
26
196
62
64
77
109
208
177
183
20
33
11
134
187
72
222
223
218
88
13
115
185
15
106
69
31
221
176
114
113
51
125
215
59
162
108
143
57
111
30
141
35

> <PUBCHEM_CONFORMER_ID>
00B07E1C00000001

> <PUBCHEM_CONFORMER_RMSD>
0.8

> <PUBCHEM_COORDINATE_TYPE>
2
5
10

> <PUBCHEM_EFFECTIVE_ROTOR_COUNT>
6.2

> <PUBCHEM_FEATURE_SELFOVERLAP>
81.263

> <PUBCHEM_HEAVY_ATOM_COUNT>
25

> <PUBCHEM_ISOTOPIC_ATOM_COUNT>
0

> <PUBCHEM_MMFF94_ENERGY>
79.6653

> <PUBCHEM_MMFF94_PARTIAL_CHARGES>
31
1 -0.56
10 0.28
11 0.28
12 0.28
13 0.28
14 0.56
15 0.28
16 0.08
17 0.09
18 -0.15
19 0.42
2 -0.36
20 0.06
21 0.08
22 0.08
23 -0.15
3 -0.68
33 0.4
34 0.4
35 0.4
36 0.4
37 0.15
39 0.15
4 -0.68
46 0.45
47 0.45
5 -0.68
6 -0.68
7 -0.53
8 -0.57
9 -0.53

> <PUBCHEM_PHARMACOPHORE_FEATURES>
16
1 1 acceptor
1 2 acceptor
1 3 acceptor
1 3 donor
1 4 acceptor
1 4 donor
1 5 acceptor
1 5 donor
1 6 acceptor
1 6 donor
1 7 donor
1 8 acceptor
1 9 donor
3 20 24 25 hydrophobe
6 1 10 11 12 13 14 rings
6 16 17 18 21 22 23 rings

> <PUBCHEM_SHAPE_FINGERPRINT>
10165383 225 17398425359520843360
10366900 7 17821720654851165359
104564 63 18196943171237892672
10498660 4 15936408901711609783
11640471 11 17559671930984253345
12156800 1 17331443820026702797
12236239 1 17489308559921479098
12553582 1 18342173320012715182
12670545 47 17676762180148543889
13134695 92 18410579465967648712
13140716 1 18195527215241355802
13911987 19 18262815059398141502
15210252 30 17604149212343070132
17357779 13 18335981978368193272
1813 80 17987247624802576126
18219364 16 18189898801753788480
19930381 70 18337109093987761163
20645476 183 17917712435288236335
20905425 154 12502974468267149262
21033648 29 17821729434302739577
21304303 282 16672150191419311892
21486144 27 18260543463637193915
23419403 2 16231733451492797816
23526113 38 18040710329736139530
23557571 272 16878238509916832558
23598291 2 17917717898037795413
238 59 17901632137544615116
25222932 49 14828746821629217101
3060560 45 18341888632490021038
350125 39 17834128811211635162
3524813 1 17748827444576062797
3797600 57 12180429944941082433
474 4 18268985573675762400
621550 5 17678482791044327667
6287921 2 17898586524716655447
6438718 38 17696467390928272440
81228 2 17975686200197093696
9862522 239 17322661338051494692
9981440 41 16121309653449803736

> <PUBCHEM_SHAPE_MULTIPOLES>
461.66
7.38
3.32
2.19
4.39
1.41
0.96
-1.63
0.43
-4.61
0.16
2.41
-0.1
0.64

> <PUBCHEM_SHAPE_SELFOVERLAP>
967.223

> <PUBCHEM_SHAPE_VOLUME>
259.3

> <RelativeEnergy>
0

> <StereoisomerIndex>
1

> <TautomerIndex>
3

> <LibDock Warning>
no hit found

> <ErrorText>
LibDock failed

$$$$
11566620
  SciTegic09112317153D

 46 47  0  0  0  0            999 V2000
   -0.3270    0.7820   -2.3080 O   0  0  0  1  0  0
    0.0150    0.7640    0.0160 O   0  0  0  1  0  0
   -2.9120    1.2860    0.1590 O   0  0  0  1  0  0
   -3.1010    0.7220   -3.4080 O   0  0  0  1  0  0
   -2.0390   -1.6120   -1.8220 O   0  0  0  1  0  0
   -1.8130    3.9820   -1.4200 O   0  0  0  1  0  0
    4.1580   -1.1520    1.6710 O   0  5  0  1  0  0
   -0.0460   -1.4030    1.3500 O   0  0  0  1  0  0
    4.1450    2.7470   -0.6370 O   0  0  0  1  0  0
   -2.9160    0.4880   -1.0120 C   0  0  1  1  0  0
   -2.7030    1.4110   -2.2350 C   0  0  1  1  0  0
   -1.8050   -0.5770   -0.8840 C   0  0  2  1  0  0
   -1.2340    1.8820   -2.3950 C   0  0  1  1  0  0
   -0.3860    0.0010   -1.1140 C   0  0  1  1  0  0
   -0.8350    2.9660   -1.3870 C   0  0  0  1  0  0
    1.3350    0.7480    0.1950 C   0  0  0  1  0  0
    2.0110   -0.3540    0.9470 C   0  0  0  1  0  0
    2.0530    1.7640   -0.3230 C   0  0  0  1  0  0
    1.2790   -1.3670    1.4810 C   0  0  0  1  0  0
    1.9340   -2.4960    2.2410 C   0  0  0  1  0  0
    3.5030   -0.2890    1.0820 C   0  0  0  1  0  0
    3.5150    1.8240   -0.1740 C   0  0  0  1  0  0
    4.1930    0.7400    0.5520 C   0  0  0  1  0  0
    1.0710   -3.7560    2.2710 C   0  0  0  1  0  0
    2.3990   -2.0660    3.6320 C   0  0  0  1  0  0
   -3.9040    0.0240   -1.0390 H   0  0  0  1  0  0
   -3.3610    2.2780   -2.1800 H   0  0  0  1  0  0
   -1.8480   -1.0620    0.0940 H   0  0  0  1  0  0
   -1.0940    2.3120   -3.3890 H   0  0  0  1  0  0
    0.3410   -0.8050   -1.2210 H   0  0  0  1  0  0
    0.1230    3.4100   -1.6570 H   0  0  0  1  0  0
   -0.8010    2.5600   -0.3770 H   0  0  0  1  0  0
    1.5480    2.5530   -0.8620 H   0  0  0  1  0  0
    2.7850   -2.6250    1.5730 H   0  0  0  1  0  0
    5.2700    0.7790    0.6550 H   0  0  0  1  0  0
    0.7470   -4.0520    1.2730 H   0  0  0  1  0  0
    0.1800   -3.5990    2.8770 H   0  0  0  1  0  0
    1.6240   -4.5900    2.7020 H   0  0  0  1  0  0
    2.9290   -1.1150    3.5860 H   0  0  0  1  0  0
    1.5510   -1.9680    4.3100 H   0  0  0  1  0  0
    3.0790   -2.8050    4.0570 H   0  0  0  1  0  0
   -3.6180    1.9430    0.0600 H   0  0  0  1  0  0
   -2.9600    1.3250   -4.1560 H   0  0  0  1  0  0
   -1.3290   -2.2640   -1.7120 H   0  0  0  1  0  0
   -1.5450    4.6570   -0.7770 H   0  0  0  1  0  0
   -0.5420   -0.5760    1.3340 H   0  0  0  1  0  0
  1 13  1  0
  1 14  1  0
  2 14  1  0
  2 16  1  0
  3 10  1  0
  3 42  1  0
  4 11  1  0
  4 43  1  0
  5 12  1  0
  5 44  1  0
  6 15  1  0
  6 45  1  0
  7 21  1  0
  8 19  1  0
  8 46  1  0
  9 22  2  0
 10 11  1  0
 10 12  1  0
 10 26  1  0
 11 13  1  0
 11 27  1  0
 12 14  1  0
 12 28  1  0
 13 15  1  0
 13 29  1  0
 14 30  1  0
 15 31  1  0
 15 32  1  0
 16 17  1  0
 16 18  2  0
 17 19  2  0
 17 21  1  0
 18 22  1  0
 18 33  1  0
 19 20  1  0
 20 24  1  0
 20 25  1  0
 20 34  1  0
 21 23  2  0
 22 23  1  0
 23 35  1  0
 24 36  1  0
 24 37  1  0
 24 38  1  0
 25 39  1  0
 25 40  1  0
 25 41  1  0
M  CHG  1   7  -1
M  END
> <Name>
11566620

> <AbsoluteEnergy>
49.2721

> <ConfNumber>
1

> <Ionization pH>
7.02_DP

> <IonizationIndex>
2

> <NumberOfIonizations>
2

> <NumberOfStereoisomers>
1

> <NumberOfTautomers>
2

> <OBJECTID>
9223374253061242893

> <PUBCHEM_ATOM_DEF_STEREO_COUNT>
5

> <PUBCHEM_ATOM_UDEF_STEREO_COUNT>
0

> <PUBCHEM_BOND_DEF_STEREO_COUNT>
0

> <PUBCHEM_BOND_UDEF_STEREO_COUNT>
0

> <PUBCHEM_CACTVS_TAUTO_COUNT>
21

> <PUBCHEM_COMPONENT_COUNT>
1

> <PUBCHEM_COMPOUND_CID>
11566620

> <PUBCHEM_CONFORMER_DIVERSEORDER>
1
229
200
16
175
50
93
165
74
193
82
90
188
189
205
139
80
8
140
195
170
135
107
122
235
199
173
104
203
147
121
98
192
61
180
172
132
130
237
204
24
167
194
23
211
228
174
79
117
68
231
81
86
210
21
227
129
207
236
103
87
54
37
158
118
56
159
232
145
240
22
34
92
138
186
137
58
171
136
181
36
28
144
60
97
105
48
219
116
182
44
40
76
39
179
153
154
102
148
156
217
71
128
160
151
112
73
45
123
126
168
43
197
214
25
149
212
213
157
234
12
120
46
42
85
152
198
29
67
10
225
75
209
41
78
124
239
233
18
94
2
201
6
101
161
96
169
65
119
32
155
5
166
190
216
146
178
133
202
89
220
27
184
14
55
163
17
38
3
164
127
206
230
91
95
224
70
99
47
110
100
53
131
9
84
150
4
63
142
19
238
226
7
52
83
49
191
66
26
196
62
64
77
109
208
177
183
20
33
11
134
187
72
222
223
218
88
13
115
185
15
106
69
31
221
176
114
113
51
125
215
59
162
108
143
57
111
30
141
35

> <PUBCHEM_CONFORMER_ID>
00B07E1C00000001

> <PUBCHEM_CONFORMER_RMSD>
0.8

> <PUBCHEM_COORDINATE_TYPE>
2
5
10

> <PUBCHEM_EFFECTIVE_ROTOR_COUNT>
6.2

> <PUBCHEM_FEATURE_SELFOVERLAP>
81.263

> <PUBCHEM_HEAVY_ATOM_COUNT>
25

> <PUBCHEM_ISOTOPIC_ATOM_COUNT>
0

> <PUBCHEM_MMFF94_ENERGY>
79.6653

> <PUBCHEM_MMFF94_PARTIAL_CHARGES>
31
1 -0.56
10 0.28
11 0.28
12 0.28
13 0.28
14 0.56
15 0.28
16 0.08
17 0.09
18 -0.15
19 0.42
2 -0.36
20 0.06
21 0.08
22 0.08
23 -0.15
3 -0.68
33 0.4
34 0.4
35 0.4
36 0.4
37 0.15
39 0.15
4 -0.68
46 0.45
47 0.45
5 -0.68
6 -0.68
7 -0.53
8 -0.57
9 -0.53

> <PUBCHEM_PHARMACOPHORE_FEATURES>
16
1 1 acceptor
1 2 acceptor
1 3 acceptor
1 3 donor
1 4 acceptor
1 4 donor
1 5 acceptor
1 5 donor
1 6 acceptor
1 6 donor
1 7 donor
1 8 acceptor
1 9 donor
3 20 24 25 hydrophobe
6 1 10 11 12 13 14 rings
6 16 17 18 21 22 23 rings

> <PUBCHEM_SHAPE_FINGERPRINT>
10165383 225 17398425359520843360
10366900 7 17821720654851165359
104564 63 18196943171237892672
10498660 4 15936408901711609783
11640471 11 17559671930984253345
12156800 1 17331443820026702797
12236239 1 17489308559921479098
12553582 1 18342173320012715182
12670545 47 17676762180148543889
13134695 92 18410579465967648712
13140716 1 18195527215241355802
13911987 19 18262815059398141502
15210252 30 17604149212343070132
17357779 13 18335981978368193272
1813 80 17987247624802576126
18219364 16 18189898801753788480
19930381 70 18337109093987761163
20645476 183 17917712435288236335
20905425 154 12502974468267149262
21033648 29 17821729434302739577
21304303 282 16672150191419311892
21486144 27 18260543463637193915
23419403 2 16231733451492797816
23526113 38 18040710329736139530
23557571 272 16878238509916832558
23598291 2 17917717898037795413
238 59 17901632137544615116
25222932 49 14828746821629217101
3060560 45 18341888632490021038
350125 39 17834128811211635162
3524813 1 17748827444576062797
3797600 57 12180429944941082433
474 4 18268985573675762400
621550 5 17678482791044327667
6287921 2 17898586524716655447
6438718 38 17696467390928272440
81228 2 17975686200197093696
9862522 239 17322661338051494692
9981440 41 16121309653449803736

> <PUBCHEM_SHAPE_MULTIPOLES>
461.66
7.38
3.32
2.19
4.39
1.41
0.96
-1.63
0.43
-4.61
0.16
2.41
-0.1
0.64

> <PUBCHEM_SHAPE_SELFOVERLAP>
967.223

> <PUBCHEM_SHAPE_VOLUME>
259.3

> <RelativeEnergy>
0

> <StereoisomerIndex>
1

> <TautomerIndex>
2

> <LibDock Warning>
no hit found

> <ErrorText>
LibDock failed

$$$$
12986068
  SciTegic09112317153D

 49 51  0  0  0  0            999 V2000
    2.8880   -0.0430    0.0360 O   0  0  0  1  0  0
    2.8720   -1.6380    2.4810 O   0  0  0  1  0  0
    1.8440   -4.4600   -0.5030 O   0  0  0  1  0  0
   -1.7330   -1.5510    0.1130 O   0  0  0  1  0  0
    0.9830    1.4580   -1.2640 O   0  0  0  1  0  0
   -7.3210    2.9510   -1.7490 O   0  0  0  1  0  0
    4.0070   -0.7680    0.5680 C   0  0  1  1  0  0
    3.9140   -0.7700    2.0950 C   0  0  0  1  0  0
    3.8470   -2.2150    0.0710 C   0  0  0  1  0  0
    2.3680   -2.2000   -0.1440 C   0  0  0  1  0  0
    1.9240   -0.9380   -0.1910 C   0  0  0  1  0  0
    5.2210   -1.2980    2.6860 C   0  0  0  1  0  0
    3.5710    0.6370    2.5870 C   0  0  0  1  0  0
    0.4980   -0.6650   -0.4390 C   0  0  0  1  0  0
    1.4530   -3.3430   -0.2600 C   0  0  0  1  0  0
   -0.4430   -1.7790   -0.1170 C   0  0  0  1  0  0
    0.0190   -3.0470   -0.0600 C   0  0  0  1  0  0
    0.0920    0.5250   -0.9400 C   0  0  0  1  0  0
   -1.3330    0.8210   -1.1700 C   0  0  0  1  0  0
   -1.9970   -1.2790    1.4810 C   0  0  0  1  0  0
   -1.8560    1.9990   -0.7960 C   0  0  0  1  0  0
   -3.3060    2.2530   -1.0480 C   0  0  0  1  0  0
   -4.0200    1.4290   -1.9370 C   0  0  0  1  0  0
   -3.9600    3.3140   -0.3970 C   0  0  0  1  0  0
   -5.3850    1.6690   -2.1750 C   0  0  0  1  0  0
   -5.3260    3.5500   -0.6380 C   0  0  0  1  0  0
   -6.0410    2.7280   -1.5250 C   0  0  0  1  0  0
    4.9280   -0.3120    0.2410 H   0  0  0  1  0  0
    4.1310   -2.9750    0.7840 H   0  0  0  1  0  0
    4.3370   -2.3730   -0.8800 H   0  0  0  1  0  0
    5.3340   -2.3700    2.5300 H   0  0  0  1  0  0
    5.2630   -1.1110    3.7580 H   0  0  0  1  0  0
    6.0780   -0.8030    2.2280 H   0  0  0  1  0  0
    2.5990    0.9690    2.2210 H   0  0  0  1  0  0
    4.3160    1.3550    2.2480 H   0  0  0  1  0  0
    3.5470    0.6700    3.6750 H   0  0  0  1  0  0
   -0.6670   -3.8560    0.1340 H   0  0  0  1  0  0
   -2.0250    0.1330   -1.6350 H   0  0  0  1  0  0
   -3.0660   -1.0940    1.5930 H   0  0  0  1  0  0
   -1.5830   -2.0920    2.0770 H   0  0  0  1  0  0
   -1.4700   -0.3640    1.7550 H   0  0  0  1  0  0
   -1.3060    2.7960   -0.3170 H   0  0  0  1  0  0
   -3.5260    0.6120   -2.4430 H   0  0  0  1  0  0
   -3.4200    3.9520    0.2880 H   0  0  0  1  0  0
   -5.9290    1.0320   -2.8600 H   0  0  0  1  0  0
   -5.8230    4.3650   -0.1340 H   0  0  0  1  0  0
    2.0990   -1.0870    2.6770 H   0  0  0  1  0  0
   -7.7590    3.6840   -1.2950 H   0  0  0  1  0  0
    1.8450    1.1890   -1.6110 H   0  0  0  1  0  0
  1  7  1  0
  1 11  1  0
  2  8  1  0
  2 47  1  0
  3 15  2  0
  4 16  1  0
  4 20  1  0
  5 18  1  0
  5 49  1  0
  6 27  1  0
  6 48  1  0
  7  8  1  0
  7  9  1  0
  7 28  1  0
  8 12  1  0
  8 13  1  0
  9 10  1  0
  9 29  1  0
  9 30  1  0
 10 11  2  0
 10 15  1  0
 11 14  1  0
 12 31  1  0
 12 32  1  0
 12 33  1  0
 13 34  1  0
 13 35  1  0
 13 36  1  0
 14 16  1  0
 14 18  2  0
 15 17  1  0
 16 17  2  0
 17 37  1  0
 18 19  1  0
 19 21  2  0
 19 38  1  0
 20 39  1  0
 20 40  1  0
 20 41  1  0
 21 22  1  0
 21 42  1  0
 22 23  2  0
 22 24  1  0
 23 25  1  0
 23 43  1  0
 24 26  2  0
 24 44  1  0
 25 27  2  0
 25 45  1  0
 26 27  1  0
 26 46  1  0
M  END
> <Name>
12986068

> <AbsoluteEnergy>
57.0732

> <ConfNumber>
1

> <Ionization pH>
7.5

> <IonizationIndex>
1

> <NumberOfIonizations>
1

> <NumberOfStereoisomers>
1

> <NumberOfTautomers>
3

> <OBJECTID>
9223374296010915853

> <PUBCHEM_ATOM_DEF_STEREO_COUNT>
0

> <PUBCHEM_ATOM_UDEF_STEREO_COUNT>
1

> <PUBCHEM_BOND_DEF_STEREO_COUNT>
1

> <PUBCHEM_BOND_UDEF_STEREO_COUNT>
0

> <PUBCHEM_CACTVS_TAUTO_COUNT>
10

> <PUBCHEM_COMPONENT_COUNT>
1

> <PUBCHEM_COMPOUND_CID>
12986068

> <PUBCHEM_CONFORMER_DIVERSEORDER>
2
81
57
39
41
24
12
42
73
61
15
20
16
65
19
69
77
13
72
36
40
26
8
43
75
46
45
23
63
28
76
32
6
52
22
68
18
70
67
33
37
55
34
62
71
9
35
60
44
64
54
80
31
10
78
25
47
53
11
48
5
49
58
74
7
17
14
79
30
21
38
4
1
3
50
66
29
27
56
51
59

> <PUBCHEM_CONFORMER_ID>
00C626D400000002

> <PUBCHEM_CONFORMER_RMSD>
0.8

> <PUBCHEM_COORDINATE_TYPE>
2
5
10

> <PUBCHEM_EFFECTIVE_ROTOR_COUNT>
5.6

> <PUBCHEM_FEATURE_SELFOVERLAP>
55.928

> <PUBCHEM_HEAVY_ATOM_COUNT>
27

> <PUBCHEM_ISOTOPIC_ATOM_COUNT>
0

> <PUBCHEM_MMFF94_ENERGY>
100.9545

> <PUBCHEM_MMFF94_PARTIAL_CHARGES>
35
1 -0.36
10 -0.14
11 0.08
14 0.09
15 0.08
16 0.08
17 -0.15
18 0.47
19 -0.14
2 -0.68
20 0.28
21 -0.18
22 0.03
23 -0.15
24 -0.15
25 -0.15
26 -0.15
27 0.08
3 -0.53
37 0.4
38 0.15
39 0.45
4 -0.36
40 0.15
44 0.15
45 0.15
46 0.15
47 0.15
48 0.15
49 0.45
5 -0.57
6 -0.53
7 0.28
8 0.28
9 0.14

> <PUBCHEM_PHARMACOPHORE_FEATURES>
11
1 1 acceptor
1 2 acceptor
1 2 donor
1 3 donor
1 4 acceptor
1 5 acceptor
1 6 donor
3 8 12 13 hydrophobe
5 1 7 9 10 11 rings
6 10 11 14 15 16 17 rings
6 22 23 24 25 26 27 rings

> <PUBCHEM_SHAPE_FINGERPRINT>
10319926 262 18202569449915769094
10928967 22 17822284640314049306
10930396 42 18269252630373862800
11370993 144 17489031453115957734
11720765 8 16337473588289719015
12523318 42 18343298163225409642
12616971 3 17749114379115544446
12633257 1 18343309145378183872
13004483 165 18198622340146874055
13140716 1 18342464784745954053
13583140 156 17346875654959178926
13994607 96 12031785907145923295
14068700 675 17986096621286661703
14705955 166 17489593311873666209
14844126 61 18412823620581831011
14856354 85 18411983555639051462
14866123 147 18411708712081874379
14910302 57 18270410365184418822
15042514 8 18411708690152707319
15230672 131 17833280714591673174
15250474 111 18334293159137319674
15348495 7 18131345303013677832
15537594 2 17967534537047740482
15950262 2 15193898722386807617
16728300 4 17750518382428743417
16994733 274 15050898469566895899
17780758 139 18411132537459366058
17980427 26 16971095273354966332
1813 80 17531545199690892436
19377110 9 18113339709388190508
20600515 1 18201454574863427717
21033648 29 18054234228337893912
21421861 104 17762915655162710417
21650355 55 18412265042978878901
22956985 138 17834383897724818600
23366157 5 17757842499759323725
23559900 14 18268138932606023425
312425 54 18343015554894668082
3383291 50 18342460370237316867
3882209 13 17195418129807348814
4409770 3 18188200984582754557
463206 1 18048314745270169842
484985 159 18261940878170133383
5104073 3 18271805761467487120
5364581 5 18058998614643245168
5486654 36 18188220921582974403
563151 74 15841286847667484255
56638632 10 16182720095963734305
57527585 21 13944116496739886895
5924683 9 18342735243089079686
602551 16 18412827971821018742
9896288 288 18266190430893227161
9953998 17 18342168952431629496
9981440 41 17903638475989269617

> <PUBCHEM_SHAPE_MULTIPOLES>
520.43
12.87
4.79
1.5
25.54
0.6
0.05
7.81
-5.61
-8.2
0.82
0.64
-0.26
-1.4

> <PUBCHEM_SHAPE_SELFOVERLAP>
1130.227

> <PUBCHEM_SHAPE_VOLUME>
286.1

> <RelativeEnergy>
0

> <StereoisomerIndex>
1

> <TautomerIndex>
2

> <LibDock Warning>
no hit found

> <ErrorText>
LibDock failed

$$$$
14162699
  SciTegic09112317153D

 58 61  0  0  0  0            999 V2000
   -0.1910    1.9810    1.3960 O   0  0  0  1  0  0
   -0.3260    0.0050    0.1290 O   0  0  0  1  0  0
   -0.4190    1.8630    4.3680 O   0  0  0  1  0  0
   -0.0640   -1.3560    2.7610 O   0  0  0  1  0  0
   -2.7490    1.0600    2.6280 O   0  0  0  1  0  0
    3.1600    0.9840    2.1620 O   0  0  0  1  0  0
   -1.9370   -0.3970   -3.0470 O   0  0  0  1  0  0
   -1.6270   -2.3100    0.4730 O   0  0  0  1  0  0
    3.8020   -1.0060    1.3510 O   0  0  0  1  0  0
   -3.2790   -4.2510   -0.5160 O   0  0  0  1  0  0
   -4.8280   -3.6740   -4.9870 O   0  0  0  1  0  0
    1.5160    5.0260   -2.9050 O   0  5  0  1  0  0
    6.5330    0.4610    3.9200 O   0  5  0  1  0  0
    5.3120    2.1870    3.5590 O   0  0  0  1  0  0
    0.2270    0.8950    3.5600 C   0  0  1  1  0  0
   -0.7830   -0.2240    3.2040 C   0  0  1  1  0  0
    0.8300    1.5920    2.3140 C   0  0  1  1  0  0
   -1.7580    0.2100    2.0830 C   0  0  2  1  0  0
   -1.0470    0.9430    0.9190 C   0  0  1  1  0  0
    1.8820    0.7400    1.5930 C   0  0  0  1  0  0
   -1.0700   -0.5110   -0.8530 C   0  0  0  1  0  0
   -1.1890    0.1150   -2.0490 C   0  0  0  1  0  0
   -1.7720   -1.7940   -0.6130 C   0  0  0  1  0  0
   -2.5840   -2.3110   -1.7500 C   0  0  0  1  0  0
    4.0710    0.1020    1.7590 C   0  0  0  1  0  0
   -2.6240   -1.5570   -2.9510 C   0  0  0  1  0  0
   -0.4750    1.4110   -2.2740 C   0  0  0  1  0  0
   -3.3060   -3.5270   -1.6440 C   0  0  0  1  0  0
    5.4990    0.5720    1.8410 C   0  0  0  1  0  0
   -3.3850   -2.0220   -4.0460 C   0  0  0  1  0  0
   -1.1450    2.6310   -2.0660 C   0  0  0  1  0  0
    0.8680    1.4120   -2.6950 C   0  0  0  1  0  0
   -4.0660   -3.9870   -2.7470 C   0  0  0  1  0  0
   -4.1050   -3.2360   -3.9450 C   0  0  0  1  0  0
   -0.4740    3.8470   -2.2760 C   0  0  0  1  0  0
    1.5380    2.6290   -2.9070 C   0  0  0  1  0  0
    5.7900    1.1340    3.2050 C   0  0  0  1  0  0
    0.8680    3.8470   -2.6980 C   0  0  0  1  0  0
    1.0290    0.4970    4.1850 H   0  0  0  1  0  0
   -1.3280   -0.5560    4.0900 H   0  0  0  1  0  0
    1.3300    2.5120    2.6200 H   0  0  0  1  0  0
   -2.3020   -0.6540    1.6960 H   0  0  0  1  0  0
   -1.7800    1.4070    0.2590 H   0  0  0  1  0  0
    1.6570   -0.3220    1.7020 H   0  0  0  1  0  0
    1.9250    0.9950    0.5350 H   0  0  0  1  0  0
    6.1740   -0.2580    1.6280 H   0  0  0  1  0  0
    5.6830    1.3310    1.0800 H   0  0  0  1  0  0
   -3.4180   -1.4500   -4.9640 H   0  0  0  1  0  0
   -2.1760    2.6410   -1.7410 H   0  0  0  1  0  0
    1.3910    0.4810   -2.8580 H   0  0  0  1  0  0
   -4.6190   -4.9120   -2.6720 H   0  0  0  1  0  0
   -0.9920    4.7810   -2.1150 H   0  0  0  1  0  0
    2.5680    2.6260   -3.2300 H   0  0  0  1  0  0
    0.2620    2.4830    4.6700 H   0  0  0  1  0  0
   -0.7010   -2.0840    2.6730 H   0  0  0  1  0  0
   -3.3970    1.2310    1.9260 H   0  0  0  1  0  0
   -2.7700   -3.9320    0.2400 H   0  0  0  1  0  0
   -4.8500   -3.1530   -5.7980 H   0  0  0  1  0  0
  1 17  1  0
  1 19  1  0
  2 19  1  0
  2 21  1  0
  3 15  1  0
  3 54  1  0
  4 16  1  0
  4 55  1  0
  5 18  1  0
  5 56  1  0
  6 20  1  0
  6 25  1  0
  7 22  1  0
  7 26  1  0
  8 23  2  0
  9 25  2  0
 10 28  1  0
 10 57  1  0
 11 34  1  0
 11 58  1  0
 12 38  1  0
 13 37  1  0
 14 37  2  0
 15 16  1  0
 15 17  1  0
 15 39  1  0
 16 18  1  0
 16 40  1  0
 17 20  1  0
 17 41  1  0
 18 19  1  0
 18 42  1  0
 19 43  1  0
 20 44  1  0
 20 45  1  0
 21 22  2  0
 21 23  1  0
 22 27  1  0
 23 24  1  0
 24 26  2  0
 24 28  1  0
 25 29  1  0
 26 30  1  0
 27 31  2  0
 27 32  1  0
 28 33  2  0
 29 37  1  0
 29 46  1  0
 29 47  1  0
 30 34  2  0
 30 48  1  0
 31 35  1  0
 31 49  1  0
 32 36  2  0
 32 50  1  0
 33 34  1  0
 33 51  1  0
 35 38  2  0
 35 52  1  0
 36 38  1  0
 36 53  1  0
M  CHG  2  12  -1  13  -1
M  END
> <Name>
14162699

> <AbsoluteEnergy>
52.2135

> <ConfNumber>
1

> <Ionization pH>
6.85_DDPP

> <IonizationIndex>
2

> <NumberOfIonizations>
2

> <NumberOfStereoisomers>
1

> <NumberOfTautomers>
3

> <OBJECTID>
9223374356140457997

> <PUBCHEM_ATOM_DEF_STEREO_COUNT>
5

> <PUBCHEM_ATOM_UDEF_STEREO_COUNT>
0

> <PUBCHEM_BOND_DEF_STEREO_COUNT>
0

> <PUBCHEM_BOND_UDEF_STEREO_COUNT>
0

> <PUBCHEM_CACTVS_TAUTO_COUNT>
57

> <PUBCHEM_COMPONENT_COUNT>
1

> <PUBCHEM_COMPOUND_CID>
14162699

> <PUBCHEM_CONFORMER_DIVERSEORDER>
1
15
84
77
113
116
5
82
23
16
8
86
2
10
90
35
91
42
59
34
94
88
29
26
52
78
40
105
44
73
119
4
37
36
19
25
99
108
110
106
98
121
3
18
85
30
74
27
111
117
45
17
13
71
112
21
115
65
114
12
53
81
89
87
104
46
6
9
43
47
69
67
68
80
32
64
11
48
101
76
38
41
96
75
103
54
62
95
20
14
102
107
63
83
70
60
56
61
28
22
58
33
57
49
109
31
120
72
51
79
7
24
55
122
118
92
93
39
66
100
50
97

> <PUBCHEM_CONFORMER_ID>
00D81B0B00000001

> <PUBCHEM_CONFORMER_RMSD>
1

> <PUBCHEM_COORDINATE_TYPE>
2
5
10

> <PUBCHEM_EFFECTIVE_ROTOR_COUNT>
9.2

> <PUBCHEM_FEATURE_SELFOVERLAP>
112.083

> <PUBCHEM_HEAVY_ATOM_COUNT>
38

> <PUBCHEM_ISOTOPIC_ATOM_COUNT>
0

> <PUBCHEM_MMFF94_ENERGY>
107.6267

> <PUBCHEM_MMFF94_PARTIAL_CHARGES>
51
1 -0.56
10 -0.53
11 -0.53
12 -0.53
13 -0.65
14 -0.57
15 0.28
16 0.28
17 0.28
18 0.28
19 0.56
2 -0.36
20 0.28
21 0.09
22 0.05
23 0.47
24 0.09
25 0.66
26 0.08
27 0.03
28 0.08
29 0.12
3 -0.68
30 -0.15
31 -0.15
32 -0.15
33 -0.15
34 0.08
35 -0.15
36 -0.15
37 0.66
38 0.08
4 -0.68
46 0.4
47 0.4
48 0.4
5 -0.68
51 0.15
52 0.15
53 0.15
54 0.15
55 0.15
56 0.15
57 0.45
58 0.45
59 0.45
6 -0.43
60 0.5
7 -0.16
8 -0.57
9 -0.57

> <PUBCHEM_PHARMACOPHORE_FEATURES>
22
1 1 acceptor
1 10 donor
1 11 donor
1 12 donor
1 13 acceptor
1 14 acceptor
1 2 acceptor
1 29 anion
1 3 acceptor
1 3 donor
1 4 acceptor
1 4 donor
1 5 acceptor
1 5 donor
1 7 acceptor
1 8 acceptor
1 9 acceptor
3 13 14 37 anion
6 1 15 16 17 18 19 rings
6 24 26 28 30 33 34 rings
6 27 31 32 35 36 38 rings
6 7 21 22 23 24 26 rings

> <PUBCHEM_SHAPE_FINGERPRINT>
10006869 2 18126008402380033743
10074138 170 17977913866642517834
10653451 467 17482278110564376071
10675989 125 17474955801172615185
1100329 8 18410573959534738911
11115154 58 17411569841290704511
11421498 54 17835525203362724003
12156800 1 17914043454890401033
12608794 3 18336255765790865519
12788726 201 17622168283708215809
131258 38 18040727990647604995
13540713 4 17389353199181585279
13947930 73 18041577879203093859
140371 6 18339345423161240694
14117953 113 18124884460883066205
14955137 171 18191596258944985930
15264996 151 18048038756200273971
15351339 4 17765719409328625809
15475509 84 18337675346977476187
16112460 7 18335699472726042507
16728300 4 17607803898820297451
17627616 140 18193277614108521393
21033648 29 17841696435822537336
21344244 78 17908399683175159746
21796203 349 18048633401756994729
4403749 210 18120643640050096704
469060 322 18193816177121247171
6442390 28 17691681196055197162
9961470 85 18270098228204404641

> <PUBCHEM_SHAPE_MULTIPOLES>
699.85
10.72
7.45
1.94
1.4
3.73
-0.08
-2.79
-7.84
1.3
0.52
0.18
-0.34
-4.28

> <PUBCHEM_SHAPE_SELFOVERLAP>
1525.326

> <PUBCHEM_SHAPE_VOLUME>
375

> <RelativeEnergy>
0

> <StereoisomerIndex>
1

> <TautomerIndex>
1

> <LibDock Warning>
no hit found

> <ErrorText>
LibDock failed

$$$$
14162699
  SciTegic09112317153D

 58 61  0  0  0  0            999 V2000
    0.9180    1.0730   -1.7980 O   0  0  0  1  0  0
    0.7220   -0.5100   -0.0710 O   0  0  0  1  0  0
    1.4290    0.1700   -4.5950 O   0  0  0  1  0  0
    0.5850   -2.4870   -2.2930 O   0  0  0  1  0  0
    3.4790   -0.3230   -2.4400 O   0  0  0  1  0  0
   -2.4400    0.5340   -2.4550 O   0  0  0  1  0  0
    1.3990    0.6880    3.2620 O   0  0  0  1  0  0
    2.0710   -2.7130    0.9410 O   0  0  0  1  0  0
   -3.4340    0.0340   -0.5090 O   0  0  0  1  0  0
    3.2930   -3.7500    3.0600 O   0  0  0  1  0  0
    3.6360   -1.2630    6.9690 O   0  0  0  1  0  0
   -1.7990    5.0600   -0.1770 O   0  5  0  1  0  0
   -4.6980    1.1840   -4.5390 O   0  5  0  1  0  0
   -4.3550   -0.9290   -4.4210 O   0  0  0  1  0  0
    0.6090   -0.5040   -3.6580 C   0  0  1  1  0  0
    1.4590   -1.5620   -2.9130 C   0  0  1  1  0  0
   -0.0410    0.5350   -2.7090 C   0  0  1  1  0  0
    2.3550   -0.9270   -1.8250 C   0  0  2  1  0  0
    1.6100    0.1330   -0.9750 C   0  0  1  1  0  0
   -1.2410   -0.0220   -1.9330 C   0  0  0  1  0  0
    1.1630   -0.4760    1.1870 C   0  0  0  1  0  0
    0.9700    0.6070    1.9800 C   0  0  0  1  0  0
    1.8800   -1.6460    1.7180 C   0  0  0  1  0  0
    2.3220   -1.6030    2.9890 C   0  0  0  1  0  0
   -3.4980    0.2590   -1.6950 C   0  0  0  1  0  0
    2.0600   -0.3700    3.7740 C   0  0  0  1  0  0
    0.2400    1.7830    1.4110 C   0  0  0  1  0  0
    3.0520   -2.7160    3.6400 C   0  0  0  1  0  0
   -4.8170    0.2410   -2.4180 C   0  0  0  1  0  0
    2.4950   -0.2960    5.0520 C   0  0  0  1  0  0
   -1.1010    2.0170    1.7670 C   0  0  0  1  0  0
    0.8940    2.6560    0.5230 C   0  0  0  1  0  0
    3.4900   -2.5390    5.0380 C   0  0  0  1  0  0
    3.2310   -1.3990    5.7090 C   0  0  0  1  0  0
   -1.7870    3.1220    1.2300 C   0  0  0  1  0  0
    0.2060    3.7590   -0.0130 C   0  0  0  1  0  0
   -4.6040    0.1340   -3.9040 C   0  0  0  1  0  0
   -1.1340    3.9920    0.3410 C   0  0  0  1  0  0
   -0.1640   -0.9900   -4.2570 H   0  0  0  1  0  0
    2.0530   -2.1520   -3.6150 H   0  0  0  1  0  0
   -0.4100    1.3790   -3.2930 H   0  0  0  1  0  0
    2.7660   -1.6970   -1.1700 H   0  0  0  1  0  0
    2.3190    0.6990   -0.3670 H   0  0  0  1  0  0
   -1.2950   -1.1050   -2.0330 H   0  0  0  1  0  0
   -1.1740    0.2410   -0.8790 H   0  0  0  1  0  0
   -5.4200   -0.5960   -2.0700 H   0  0  0  1  0  0
   -5.3750    1.1490   -2.1880 H   0  0  0  1  0  0
    2.3010    0.6020    5.6180 H   0  0  0  1  0  0
   -1.6130    1.3540    2.4480 H   0  0  0  1  0  0
    1.9230    2.4840    0.2460 H   0  0  0  1  0  0
    4.0290   -3.3370    5.5290 H   0  0  0  1  0  0
   -2.8170    3.2990    1.5050 H   0  0  0  1  0  0
    0.7110    4.4280   -0.6940 H   0  0  0  1  0  0
    0.8410    0.6830   -5.1730 H   0  0  0  1  0  0
    1.1200   -3.2520   -2.0280 H   0  0  0  1  0  0
    4.1050   -0.0970   -1.7320 H   0  0  0  1  0  0
    3.4430   -0.4430    7.4440 H   0  0  0  1  0  0
    1.6580   -2.7420    0.0680 H   0  0  0  1  0  0
  1 17  1  0
  1 19  1  0
  2 19  1  0
  2 21  1  0
  3 15  1  0
  3 54  1  0
  4 16  1  0
  4 55  1  0
  5 18  1  0
  5 56  1  0
  6 20  1  0
  6 25  1  0
  7 22  1  0
  7 26  1  0
  8 23  1  0
  8 58  1  0
  9 25  2  0
 10 28  2  0
 11 34  1  0
 11 57  1  0
 12 38  1  0
 13 37  1  0
 14 37  2  0
 15 16  1  0
 15 17  1  0
 15 39  1  0
 16 18  1  0
 16 40  1  0
 17 20  1  0
 17 41  1  0
 18 19  1  0
 18 42  1  0
 19 43  1  0
 20 44  1  0
 20 45  1  0
 21 22  2  0
 21 23  1  0
 22 27  1  0
 23 24  2  0
 24 26  1  0
 24 28  1  0
 25 29  1  0
 26 30  2  0
 27 31  2  0
 27 32  1  0
 28 33  1  0
 29 37  1  0
 29 46  1  0
 29 47  1  0
 30 34  1  0
 30 48  1  0
 31 35  1  0
 31 49  1  0
 32 36  2  0
 32 50  1  0
 33 34  2  0
 33 51  1  0
 35 38  2  0
 35 52  1  0
 36 38  1  0
 36 53  1  0
M  CHG  2  12  -1  13  -1
M  END
> <Name>
14162699

> <AbsoluteEnergy>
49.5248

> <ConfNumber>
1

> <Ionization pH>
6.85_DDPP

> <IonizationIndex>
2

> <NumberOfIonizations>
2

> <NumberOfStereoisomers>
1

> <NumberOfTautomers>
3

> <OBJECTID>
9223374360435425293

> <PUBCHEM_ATOM_DEF_STEREO_COUNT>
5

> <PUBCHEM_ATOM_UDEF_STEREO_COUNT>
0

> <PUBCHEM_BOND_DEF_STEREO_COUNT>
0

> <PUBCHEM_BOND_UDEF_STEREO_COUNT>
0

> <PUBCHEM_CACTVS_TAUTO_COUNT>
57

> <PUBCHEM_COMPONENT_COUNT>
1

> <PUBCHEM_COMPOUND_CID>
14162699

> <PUBCHEM_CONFORMER_DIVERSEORDER>
1
15
84
77
113
116
5
82
23
16
8
86
2
10
90
35
91
42
59
34
94
88
29
26
52
78
40
105
44
73
119
4
37
36
19
25
99
108
110
106
98
121
3
18
85
30
74
27
111
117
45
17
13
71
112
21
115
65
114
12
53
81
89
87
104
46
6
9
43
47
69
67
68
80
32
64
11
48
101
76
38
41
96
75
103
54
62
95
20
14
102
107
63
83
70
60
56
61
28
22
58
33
57
49
109
31
120
72
51
79
7
24
55
122
118
92
93
39
66
100
50
97

> <PUBCHEM_CONFORMER_ID>
00D81B0B00000001

> <PUBCHEM_CONFORMER_RMSD>
1

> <PUBCHEM_COORDINATE_TYPE>
2
5
10

> <PUBCHEM_EFFECTIVE_ROTOR_COUNT>
9.2

> <PUBCHEM_FEATURE_SELFOVERLAP>
112.083

> <PUBCHEM_HEAVY_ATOM_COUNT>
38

> <PUBCHEM_ISOTOPIC_ATOM_COUNT>
0

> <PUBCHEM_MMFF94_ENERGY>
107.6267

> <PUBCHEM_MMFF94_PARTIAL_CHARGES>
51
1 -0.56
10 -0.53
11 -0.53
12 -0.53
13 -0.65
14 -0.57
15 0.28
16 0.28
17 0.28
18 0.28
19 0.56
2 -0.36
20 0.28
21 0.09
22 0.05
23 0.47
24 0.09
25 0.66
26 0.08
27 0.03
28 0.08
29 0.12
3 -0.68
30 -0.15
31 -0.15
32 -0.15
33 -0.15
34 0.08
35 -0.15
36 -0.15
37 0.66
38 0.08
4 -0.68
46 0.4
47 0.4
48 0.4
5 -0.68
51 0.15
52 0.15
53 0.15
54 0.15
55 0.15
56 0.15
57 0.45
58 0.45
59 0.45
6 -0.43
60 0.5
7 -0.16
8 -0.57
9 -0.57

> <PUBCHEM_PHARMACOPHORE_FEATURES>
22
1 1 acceptor
1 10 donor
1 11 donor
1 12 donor
1 13 acceptor
1 14 acceptor
1 2 acceptor
1 29 anion
1 3 acceptor
1 3 donor
1 4 acceptor
1 4 donor
1 5 acceptor
1 5 donor
1 7 acceptor
1 8 acceptor
1 9 acceptor
3 13 14 37 anion
6 1 15 16 17 18 19 rings
6 24 26 28 30 33 34 rings
6 27 31 32 35 36 38 rings
6 7 21 22 23 24 26 rings

> <PUBCHEM_SHAPE_FINGERPRINT>
10006869 2 18126008402380033743
10074138 170 17977913866642517834
10653451 467 17482278110564376071
10675989 125 17474955801172615185
1100329 8 18410573959534738911
11115154 58 17411569841290704511
11421498 54 17835525203362724003
12156800 1 17914043454890401033
12608794 3 18336255765790865519
12788726 201 17622168283708215809
131258 38 18040727990647604995
13540713 4 17389353199181585279
13947930 73 18041577879203093859
140371 6 18339345423161240694
14117953 113 18124884460883066205
14955137 171 18191596258944985930
15264996 151 18048038756200273971
15351339 4 17765719409328625809
15475509 84 18337675346977476187
16112460 7 18335699472726042507
16728300 4 17607803898820297451
17627616 140 18193277614108521393
21033648 29 17841696435822537336
21344244 78 17908399683175159746
21796203 349 18048633401756994729
4403749 210 18120643640050096704
469060 322 18193816177121247171
6442390 28 17691681196055197162
9961470 85 18270098228204404641

> <PUBCHEM_SHAPE_MULTIPOLES>
699.85
10.72
7.45
1.94
1.4
3.73
-0.08
-2.79
-7.84
1.3
0.52
0.18
-0.34
-4.28

> <PUBCHEM_SHAPE_SELFOVERLAP>
1525.326

> <PUBCHEM_SHAPE_VOLUME>
375

> <RelativeEnergy>
0

> <StereoisomerIndex>
1

> <TautomerIndex>
2

> <LibDock Warning>
no hit found

> <ErrorText>
LibDock failed

$$$$
15959354
  SciTegic09112317153D

 55 58  0  0  0  0            999 V2000
   -0.2810   -0.2540    1.1790 O   0  0  0  1  0  0
    0.6700    5.2550    0.7680 O   0  0  0  1  0  0
   -1.1600    3.9600   -1.0400 O   0  0  0  1  0  0
   -0.8020    1.1050   -1.2620 O   0  0  0  1  0  0
    2.3380    4.8030    3.1580 O   0  0  0  1  0  0
   -0.1940   -2.8910   -1.3670 O   0  0  0  1  0  0
    2.2380   -0.6860    1.1800 O   0  0  0  1  0  0
    4.2940   -2.1170    0.1470 O   0  0  0  1  0  0
    3.4260   -5.4160   -3.1800 O   0  0  0  1  0  0
   -4.8350   -3.3430   -2.6090 O   0  0  0  1  0  0
   -6.1710   -1.5860   -0.9480 O   0  0  0  1  0  0
    1.0280    3.2020    1.9720 C   0  0  2  1  0  0
    0.0830    3.9940    1.0440 C   0  0  2  1  0  0
    0.5010    1.7750    2.2070 C   0  0  0  1  0  0
    0.2630    1.0280    0.8890 C   0  0  2  1  0  0
   -0.1910    3.2470   -0.2870 C   0  0  1  1  0  0
   -0.6960    1.8060   -0.0340 C   0  0  1  1  0  0
    1.2560    3.9130    3.3130 C   0  0  0  1  0  0
    0.1700   -1.1930    0.3520 C   0  0  0  1  0  0
   -0.7440   -1.9710   -0.5490 C   0  0  0  1  0  0
    1.5060   -1.4230    0.3480 C   0  0  0  1  0  0
    2.0290   -2.4700   -0.5780 C   0  0  0  1  0  0
   -2.0980   -1.8340   -0.6140 C   0  0  0  1  0  0
    1.1230   -3.1700   -1.4120 C   0  0  0  1  0  0
    3.4170   -2.7680   -0.6310 C   0  0  0  1  0  0
    1.5960   -4.1680   -2.2940 C   0  0  0  1  0  0
   -2.8640   -2.6580   -1.5920 C   0  0  0  1  0  0
   -2.8990   -0.9070    0.2350 C   0  0  0  1  0  0
    3.8870   -3.7690   -1.5150 C   0  0  0  1  0  0
    2.9780   -4.4680   -2.3450 C   0  0  0  1  0  0
   -4.2050   -2.5840   -1.7160 C   0  0  0  1  0  0
   -4.2410   -0.8300    0.1190 C   0  0  0  1  0  0
   -4.9670   -1.6620   -0.8550 C   0  0  0  1  0  0
    1.9970    3.1100    1.4780 H   0  0  0  1  0  0
   -0.8580    4.1830    1.5630 H   0  0  0  1  0  0
    1.2110    1.2160    2.8170 H   0  0  0  1  0  0
   -0.4290    1.8170    2.7770 H   0  0  0  1  0  0
    1.2210    0.8750    0.3900 H   0  0  0  1  0  0
    0.7260    3.2120   -0.8800 H   0  0  0  1  0  0
   -1.6890    1.8290    0.4160 H   0  0  0  1  0  0
    0.3760    4.4950    3.5910 H   0  0  0  1  0  0
    1.5110    3.2000    4.0940 H   0  0  0  1  0  0
    0.9040   -4.7030   -2.9290 H   0  0  0  1  0  0
   -2.3480   -3.3490   -2.2430 H   0  0  0  1  0  0
   -2.4730   -0.2590    0.9790 H   0  0  0  1  0  0
    4.9400   -3.9990   -1.5570 H   0  0  0  1  0  0
   -4.7940   -0.1480    0.7500 H   0  0  0  1  0  0
    0.5650    5.8000    1.5620 H   0  0  0  1  0  0
   -1.2930    3.4720   -1.8690 H   0  0  0  1  0  0
   -1.1820    0.2350   -1.0660 H   0  0  0  1  0  0
    2.4680    5.2460    4.0100 H   0  0  0  1  0  0
    3.9740   -1.4350    0.7510 H   0  0  0  1  0  0
    4.3730   -5.6120   -3.2070 H   0  0  0  1  0  0
   -5.7960   -3.2830   -2.6870 H   0  0  0  1  0  0
    1.8430   -0.3710    2.0050 H   0  0  0  1  0  0
  1 15  1  0
  1 19  1  0
  2 13  1  0
  2 48  1  0
  3 16  1  0
  3 49  1  0
  4 17  1  0
  4 50  1  0
  5 18  1  0
  5 51  1  0
  6 20  1  0
  6 24  1  0
  7 21  1  0
  7 55  1  0
  8 25  1  0
  8 52  1  0
  9 30  1  0
  9 53  1  0
 10 31  1  0
 10 54  1  0
 11 33  2  0
 12 13  1  0
 12 14  1  0
 12 18  1  0
 12 34  1  0
 13 16  1  0
 13 35  1  0
 14 15  1  0
 14 36  1  0
 14 37  1  0
 15 17  1  0
 15 38  1  0
 16 17  1  0
 16 39  1  0
 17 40  1  0
 18 41  1  0
 18 42  1  0
 19 20  1  0
 19 21  2  0
 20 23  2  0
 21 22  1  0
 22 24  2  0
 22 25  1  0
 23 27  1  0
 23 28  1  0
 24 26  1  0
 25 29  2  0
 26 30  2  0
 26 43  1  0
 27 31  2  0
 27 44  1  0
 28 32  2  0
 28 45  1  0
 29 30  1  0
 29 46  1  0
 31 33  1  0
 32 33  1  0
 32 47  1  0
M  END
> <Name>
15959354

> <AbsoluteEnergy>
58.2675

> <ConfNumber>
1

> <Ionization pH>
7.5

> <IonizationIndex>
1

> <NumberOfIonizations>
1

> <NumberOfStereoisomers>
1

> <NumberOfTautomers>
4

> <OBJECTID>
9223374381910261773

> <PUBCHEM_ATOM_DEF_STEREO_COUNT>
5

> <PUBCHEM_ATOM_UDEF_STEREO_COUNT>
0

> <PUBCHEM_BOND_DEF_STEREO_COUNT>
0

> <PUBCHEM_BOND_UDEF_STEREO_COUNT>
0

> <PUBCHEM_CACTVS_TAUTO_COUNT>
162

> <PUBCHEM_COMPONENT_COUNT>
1

> <PUBCHEM_COMPOUND_CID>
15959354

> <PUBCHEM_CONFORMER_DIVERSEORDER>
1
40
8
50
31
3
16
30
44
47
13
43
49
34
26
39
32
7
37
41
22
25
19
23
35
15
29
24
4
2
45
14
42
20
33
28
36
48
5
38
46
21
12
27
6
18
11
9
17
10

> <PUBCHEM_CONFORMER_ID>
00F3853A00000001

> <PUBCHEM_CONFORMER_RMSD>
0.8

> <PUBCHEM_COORDINATE_TYPE>
2
5
10

> <PUBCHEM_EFFECTIVE_ROTOR_COUNT>
5.2

> <PUBCHEM_FEATURE_SELFOVERLAP>
96.483

> <PUBCHEM_HEAVY_ATOM_COUNT>
33

> <PUBCHEM_ISOTOPIC_ATOM_COUNT>
0

> <PUBCHEM_MMFF94_ENERGY>
104.2562

> <PUBCHEM_MMFF94_PARTIAL_CHARGES>
44
1 -0.36
10 -0.53
11 -0.53
13 0.28
15 0.28
16 0.28
17 0.28
18 0.28
19 0.09
2 -0.68
20 0.05
21 0.47
22 0.09
23 0.03
24 0.08
25 0.08
26 -0.15
27 -0.15
28 -0.15
29 -0.15
3 -0.68
30 0.08
31 0.08
32 -0.15
33 0.08
4 -0.68
43 0.4
44 0.4
45 0.4
46 0.4
47 0.15
48 0.15
49 0.15
5 -0.68
50 0.15
51 0.15
52 0.45
53 0.45
54 0.45
55 0.45
6 -0.16
7 -0.57
8 -0.53
9 -0.53

> <PUBCHEM_PHARMACOPHORE_FEATURES>
19
1 1 acceptor
1 10 donor
1 11 donor
1 2 acceptor
1 2 donor
1 3 acceptor
1 3 donor
1 4 acceptor
1 4 donor
1 5 acceptor
1 5 donor
1 6 acceptor
1 7 acceptor
1 8 donor
1 9 donor
6 12 13 14 15 16 17 rings
6 22 24 25 26 29 30 rings
6 23 27 28 31 32 33 rings
6 6 19 20 21 22 24 rings

> <PUBCHEM_SHAPE_FINGERPRINT>
10554248 39 9510357101400963915
11991303 11 8026254021840204833
12156800 1 15335789658553331432
12160290 23 17615947938249459364
12342043 65 17341827625135762094
12422481 6 18123157295239948624
12788726 201 17899712171299840906
13140716 1 18051138291245576869
133893 2 18046326789876086837
13540713 5 18129107895825824951
13642711 20 8408771909931471969
14363568 33 18340755023417939592
14790565 3 17763469812791101661
14955137 171 18342746260123357468
15420108 30 17983290718545302301
15475509 35 17168153368801442739
15664445 248 18340504347440121028
15684970 41 18187088390152182058
15775530 1 18188755245806715469
17980427 23 17917422138606591703
1813 80 18335423435119587995
19309040 13 14906466823910627978
20600515 1 18054803788345788645
20642791 268 18271237339102997545
20739085 24 18343584044807105714
21033648 29 17773585032530950539
21133665 82 17833004011355420108
21421861 104 18336270153810416641
21796203 349 17760418444791050515
22956985 138 18189610725692184850
23366157 5 18189906490177771525
23559900 14 18059309728951686695
3380486 145 17984668213484035916
3411729 13 18192999442167324833
376196 1 17268090337901908765
394222 165 18049165771759168977
4409770 3 17682953298138775397
57527358 35 14276847677670217125
6287921 2 18129087000044876578
6679774 75 17827351387647797312
79837 15 17185039903717647519
9841814 1 18187085078763453387
9981440 41 17689163730754191755

> <PUBCHEM_SHAPE_MULTIPOLES>
614.56
9.44
6.56
1.98
11.65
8.81
-0.84
-9.04
-5.08
-7.61
2.41
-2.17
-0.31
0.18

> <PUBCHEM_SHAPE_SELFOVERLAP>
1351.245

> <PUBCHEM_SHAPE_VOLUME>
328.5

> <RelativeEnergy>
0

> <StereoisomerIndex>
1

> <TautomerIndex>
4

> <LibDock Warning>
no hit found

> <ErrorText>
LibDock failed

$$$$
16401639
  SciTegic09112317153D

 94 99  0  0  0  0            999 V2000
    1.8930   -0.5740    0.1850 O   0  0  0  1  0  0
   -5.7540   -4.8860    0.6350 O   0  5  0  1  0  0
   -4.6320   -4.9180    2.4580 O   0  0  0  1  0  0
    2.4930   -0.0320   -2.0430 O   0  0  0  1  0  0
    3.8460    2.3240   -0.7760 O   0  0  0  1  0  0
    4.9290   -0.8820    0.4940 O   0  0  0  1  0  0
    5.3170    0.6200   -2.7740 O   0  0  0  1  0  0
    1.8560    3.5960   -0.5780 O   0  0  0  1  0  0
    4.1230   -3.2760   -2.1900 O   0  0  0  1  0  0
    3.6120    5.5380    0.8810 O   0  0  0  1  0  0
    4.7310    4.7320   -2.4600 O   0  0  0  1  0  0
    1.7880    6.4920   -1.3120 O   0  0  0  1  0  0
    1.7300    3.5820   -4.2110 O   0  0  0  1  0  0
   -1.3580   -1.4340    1.5750 C   0  0  2  1  0  0
   -2.3590   -1.0050    0.4450 C   0  0  2  1  0  0
   -3.5770   -1.9700    0.3540 C   0  0  1  1  0  0
   -4.2880   -2.0020    1.7420 C   0  0  2  1  0  0
   -0.0030   -1.8640    0.9650 C   0  0  0  1  0  0
    0.4980   -0.5180    0.4220 C   0  0  2  1  0  0
   -1.8740   -2.5360    2.5150 C   0  0  0  1  0  0
   -1.6550   -0.7990   -0.9270 C   0  0  0  1  0  0
   -0.9110   -0.2090    2.4030 C   0  0  0  1  0  0
   -3.3270   -2.2850    2.9270 C   0  0  0  1  0  0
   -5.5870   -2.8590    1.7700 C   0  0  2  1  0  0
   -4.5950   -1.4890   -0.7090 C   0  0  0  1  0  0
   -0.2620   -0.1360   -0.8630 C   0  0  0  1  0  0
    0.1500    0.4120    1.5500 C   0  0  0  1  0  0
   -3.0930   -3.3690   -0.0740 C   0  0  0  1  0  0
   -6.5380   -2.4040    0.6420 C   0  0  0  1  0  0
   -5.8570   -2.3620   -0.7330 C   0  0  0  1  0  0
   -6.3030   -2.6870    3.1140 C   0  0  0  1  0  0
   -5.2900   -4.3340    1.6300 C   0  0  0  1  0  0
    0.6960    1.6240    1.7730 C   0  0  0  1  0  0
    2.3480    0.4330   -0.6970 C   0  0  2  1  0  0
    3.6630    1.0610   -0.1630 C   0  0  1  1  0  0
    4.9140    0.1900   -0.4310 C   0  0  2  1  0  0
    3.5490   -0.9600   -2.3020 C   0  0  1  1  0  0
    4.9230   -0.3930   -1.8650 C   0  0  1  1  0  0
    3.2280   -2.3210   -1.6680 C   0  0  0  1  0  0
    3.1860    3.3740   -0.0980 C   0  0  2  1  0  0
    4.0390    4.6680   -0.1520 C   0  0  1  1  0  0
    3.9390    5.4150   -1.5040 C   0  0  2  1  0  0
    1.7200    4.1460   -1.8920 C   0  0  1  1  0  0
    2.4850    5.4850   -2.0260 C   0  0  1  1  0  0
    2.1290    3.1070   -2.9460 C   0  0  0  1  0  0
   -2.7680   -0.0300    0.7190 H   0  0  0  1  0  0
   -4.6270   -0.9760    1.9060 H   0  0  0  1  0  0
   -0.1060   -2.6240    0.2010 H   0  0  0  1  0  0
    0.6560   -2.2610    1.7280 H   0  0  0  1  0  0
   -1.8000   -3.5120    2.0360 H   0  0  0  1  0  0
   -1.2440   -2.6120    3.4020 H   0  0  0  1  0  0
   -2.2920   -0.2250   -1.6000 H   0  0  0  1  0  0
   -1.5280   -1.7710   -1.4070 H   0  0  0  1  0  0
   -1.7170    0.4810    2.6060 H   0  0  0  1  0  0
   -0.4730   -0.4950    3.3490 H   0  0  0  1  0  0
   -3.3550   -1.4370    3.6150 H   0  0  0  1  0  0
   -3.6690   -3.1360    3.5160 H   0  0  0  1  0  0
   -4.1490   -1.4930   -1.7050 H   0  0  0  1  0  0
   -4.8780   -0.4560   -0.5120 H   0  0  0  1  0  0
    0.2920   -0.4330   -1.7550 H   0  0  0  1  0  0
   -0.3620    0.9490   -0.9310 H   0  0  0  1  0  0
   -3.6750   -3.7370   -0.9190 H   0  0  0  1  0  0
   -2.0400   -3.3440   -0.3530 H   0  0  0  1  0  0
   -3.2040   -4.0820    0.7430 H   0  0  0  1  0  0
   -7.4180   -3.0460    0.6000 H   0  0  0  1  0  0
   -6.9090   -1.4040    0.8710 H   0  0  0  1  0  0
   -5.6010   -3.3730   -1.0480 H   0  0  0  1  0  0
   -6.5580   -1.9800   -1.4760 H   0  0  0  1  0  0
   -7.2650   -3.2000    3.1320 H   0  0  0  1  0  0
   -6.4830   -1.6340    3.3240 H   0  0  0  1  0  0
   -5.6960   -3.0910    3.9270 H   0  0  0  1  0  0
    0.4250    2.3270    2.5460 H   0  0  0  1  0  0
    1.4860    1.9060    1.0930 H   0  0  0  1  0  0
    1.5520    1.1780   -0.7070 H   0  0  0  1  0  0
    3.5740    1.2820    0.9020 H   0  0  0  1  0  0
    5.8300    0.7490   -0.2320 H   0  0  0  1  0  0
    3.5490   -1.1200   -3.3800 H   0  0  0  1  0  0
    5.6850   -1.1670   -1.9560 H   0  0  0  1  0  0
    2.2130   -2.6330   -1.9190 H   0  0  0  1  0  0
    3.3640   -2.2820   -0.5880 H   0  0  0  1  0  0
    3.0910    3.0270    0.9330 H   0  0  0  1  0  0
    5.0820    4.4470    0.0870 H   0  0  0  1  0  0
    4.3790    6.4120   -1.4340 H   0  0  0  1  0  0
    0.6530    4.3200   -2.0330 H   0  0  0  1  0  0
    2.4700    5.8150   -3.0660 H   0  0  0  1  0  0
    1.6270    2.1560   -2.7650 H   0  0  0  1  0  0
    3.2120    2.9780   -2.9560 H   0  0  0  1  0  0
    5.7900   -1.3200    0.4100 H   0  0  0  1  0  0
    5.4780    0.1900   -3.6280 H   0  0  0  1  0  0
    3.9060   -4.1270   -1.7770 H   0  0  0  1  0  0
    3.8410    5.1150    1.7240 H   0  0  0  1  0  0
    4.7780    5.2950   -3.2480 H   0  0  0  1  0  0
    0.9420    6.6320   -1.7690 H   0  0  0  1  0  0
    1.9990    2.9170   -4.8640 H   0  0  0  1  0  0
  1 19  1  0
  1 34  1  0
  2 32  1  0
  3 32  2  0
  4 34  1  0
  4 37  1  0
  5 35  1  0
  5 40  1  0
  6 36  1  0
  6 88  1  0
  7 38  1  0
  7 89  1  0
  8 40  1  0
  8 43  1  0
  9 39  1  0
  9 90  1  0
 10 41  1  0
 10 91  1  0
 11 42  1  0
 11 92  1  0
 12 44  1  0
 12 93  1  0
 13 45  1  0
 13 94  1  0
 14 15  1  0
 14 18  1  0
 14 20  1  0
 14 22  1  0
 15 16  1  0
 15 21  1  0
 15 46  1  0
 16 17  1  0
 16 25  1  0
 16 28  1  0
 17 23  1  0
 17 24  1  0
 17 47  1  0
 18 19  1  0
 18 48  1  0
 18 49  1  0
 19 26  1  0
 19 27  1  0
 20 23  1  0
 20 50  1  0
 20 51  1  0
 21 26  1  0
 21 52  1  0
 21 53  1  0
 22 27  1  0
 22 54  1  0
 22 55  1  0
 23 56  1  0
 23 57  1  0
 24 29  1  0
 24 31  1  0
 24 32  1  0
 25 30  1  0
 25 58  1  0
 25 59  1  0
 26 60  1  0
 26 61  1  0
 27 33  2  0
 28 62  1  0
 28 63  1  0
 28 64  1  0
 29 30  1  0
 29 65  1  0
 29 66  1  0
 30 67  1  0
 30 68  1  0
 31 69  1  0
 31 70  1  0
 31 71  1  0
 33 72  1  0
 33 73  1  0
 34 35  1  0
 34 74  1  0
 35 36  1  0
 35 75  1  0
 36 38  1  0
 36 76  1  0
 37 38  1  0
 37 39  1  0
 37 77  1  0
 38 78  1  0
 39 79  1  0
 39 80  1  0
 40 41  1  0
 40 81  1  0
 41 42  1  0
 41 82  1  0
 42 44  1  0
 42 83  1  0
 43 44  1  0
 43 45  1  0
 43 84  1  0
 44 85  1  0
 45 86  1  0
 45 87  1  0
M  CHG  1   2  -1
M  END
> <Name>
16401639

> <AbsoluteEnergy>
72.3284

> <ConfNumber>
1

> <Ionization pH>
7.73_D

> <IonizationIndex>
2

> <NumberOfIonizations>
2

> <NumberOfStereoisomers>
1

> <NumberOfTautomers>
1

> <OBJECTID>
9223374390500196365

> <PUBCHEM_ATOM_DEF_STEREO_COUNT>
16

> <PUBCHEM_ATOM_UDEF_STEREO_COUNT>
0

> <PUBCHEM_BOND_DEF_STEREO_COUNT>
0

> <PUBCHEM_BOND_UDEF_STEREO_COUNT>
0

> <PUBCHEM_CACTVS_TAUTO_COUNT>
1

> <PUBCHEM_COMPONENT_COUNT>
1

> <PUBCHEM_COMPOUND_CID>
16401639

> <PUBCHEM_CONFORMER_DIVERSEORDER>
1
20
36
26
17
31
47
3
37
35
19
45
46
30
27
12
16
40
38
39
44
24
49
50
42
34
28
23
11
9
29
25
43
7
4
10
48
33
2
14
21
6
18
8
13
51
15
22
5
41
32

> <PUBCHEM_CONFORMER_ID>
00FA44E700000001

> <PUBCHEM_CONFORMER_RMSD>
1.2

> <PUBCHEM_COORDINATE_TYPE>
2
5
10

> <PUBCHEM_EFFECTIVE_ROTOR_COUNT>
11.4

> <PUBCHEM_FEATURE_SELFOVERLAP>
132.182

> <PUBCHEM_HEAVY_ATOM_COUNT>
45

> <PUBCHEM_ISOTOPIC_ATOM_COUNT>
0

> <PUBCHEM_MMFF94_ENERGY>
177.8629

> <PUBCHEM_MMFF94_PARTIAL_CHARGES>
41
1 -0.56
10 -0.68
11 -0.68
12 -0.68
13 -0.68
19 0.42
2 -0.65
22 0.14
24 0.06
27 -0.28
3 -0.57
32 0.66
33 -0.3
34 0.56
35 0.28
36 0.28
37 0.28
38 0.28
39 0.28
4 -0.56
40 0.56
41 0.28
42 0.28
43 0.28
44 0.28
45 0.28
5 -0.56
6 -0.68
7 -0.68
72 0.15
73 0.15
76 0.5
8 -0.56
83 0.4
84 0.4
87 0.4
9 -0.68
90 0.4
93 0.4
94 0.4
95 0.4

> <PUBCHEM_PHARMACOPHORE_FEATURES>
26
1 1 acceptor
1 10 acceptor
1 10 donor
1 11 acceptor
1 11 donor
1 12 acceptor
1 12 donor
1 13 acceptor
1 13 donor
1 2 acceptor
1 3 acceptor
1 4 acceptor
1 5 acceptor
1 6 acceptor
1 6 donor
1 7 acceptor
1 7 donor
1 8 acceptor
1 9 acceptor
1 9 donor
3 2 3 32 anion
6 14 15 16 17 20 23 rings
6 16 17 24 25 29 30 rings
6 4 34 35 36 37 38 rings
6 8 40 41 42 43 44 rings
8 14 15 18 19 21 22 26 27 rings

> <PUBCHEM_SHAPE_FINGERPRINT>
10169797 241 18340472461170437881
10462674 369 17822580512074000619
10794284 68 17986700141517453377
10928967 22 16772930524756363799
11672396 43 18261950731590410930
12107183 9 10663814195906160867
12422481 6 10592041349710263024
12788726 201 18334295344547479026
1361 2 17916860352578959144
13690498 29 18271517620712342357
13782708 43 17274816905311648990
13811026 1 18409730664734815478
13911987 19 18259701203434233547
14040221 97 17464275081439819348
14415361 349 17273109488608244295
14767858 380 18333726918489317785
14932701 244 18337965492938860229
15320295 40 18187916267337718900
15361156 5 18412543181425156205
15669420 48 17917988404596544444
17909252 39 17702663242757752144
20511986 3 14562794535890780183
20775438 99 17771038765074275854
22122407 14 13985248633997890070
22440779 20 16486971739949059105
23522609 53 16700920312623156082
24771750 20 17833274494629351541
249057 25 17896312520423119098
3117164 225 8574413319354113494
354706 132 17968666999511728132
3886686 26 8904172409033628038
4258327 124 16444778114672553310
437795 51 18265051504028659201
44344687 77 18339932610025848609
5171179 24 17831588939256930299
57527295 17 18052557478228561086
5912855 24 18194686960745820539
6058803 2 17684356270448261369
6086070 43 14996869700454158598
6669772 16 17982720072063850848
77296 10 16443062785785359163
86090 222 18265315382609092785

> <PUBCHEM_SHAPE_MULTIPOLES>
849.78
18.44
4.39
2.92
6.9
5.94
0.12
-7.87
13.29
1.63
-1.75
0.91
-1.42
0.79

> <PUBCHEM_SHAPE_SELFOVERLAP>
1817.135

> <PUBCHEM_SHAPE_VOLUME>
463.4

> <RelativeEnergy>
0

> <StereoisomerIndex>
1

> <TautomerIndex>
1

> <LibDock Warning>
no hit found

> <ErrorText>
LibDock failed

$$$$
21593623
  SciTegic09112317153D

116122  0  0  0  0            999 V2000
   -0.1480    0.1650    0.4050 O   0  0  0  1  0  0
    7.8550   -4.6180   -0.3550 O   0  0  0  1  0  0
    5.6170   -4.7480   -0.3250 O   0  0  0  1  0  0
   -0.1020    2.3840    1.2340 O   0  0  0  1  0  0
   -2.4900    2.7640   -0.5350 O   0  0  0  1  0  0
   -2.8310    0.1030    1.8870 O   0  0  0  1  0  0
   -2.5610    3.6810    2.3310 O   0  0  0  1  0  0
   -3.0130    3.7440   -2.5500 O   0  0  0  1  0  0
    1.2750    0.9010    3.0670 O   0  0  0  1  0  0
   -2.9480   -0.3530    4.1400 O   0  0  0  1  0  0
   -4.8400    1.0890   -0.8050 O   0  0  0  1  0  0
   -5.4160   -1.1640    1.5570 O   0  0  0  1  0  0
   -6.8620    2.2160   -2.5650 O   0  0  0  1  0  0
   -5.7070    3.3550   -4.9780 O   0  0  0  1  0  0
   -6.0580   -3.0480    3.6750 O   0  0  0  1  0  0
   -5.3600   -2.0220    6.3070 O   0  0  0  1  0  0
   -3.8550    6.0570   -3.8800 O   0  0  0  1  0  0
   -2.1200    0.6040    6.6570 O   0  0  0  1  0  0
    2.5250   -1.8480   -1.0230 C   0  0  2  1  0  0
    3.6320   -0.7850   -1.3450 C   0  0  2  1  0  0
    5.0770   -1.3580   -1.2440 C   0  0  1  1  0  0
    5.2110   -2.6460   -2.1060 C   0  0  2  1  0  0
    1.6700   -1.4250    0.1950 C   0  0  0  1  0  0
    0.9910   -0.1660   -0.3680 C   0  0  2  1  0  0
    3.0510   -3.2800   -0.8410 C   0  0  0  1  0  0
    3.4500    0.5110   -0.5100 C   0  0  0  1  0  0
    1.4430   -1.8160   -2.1240 C   0  0  0  1  0  0
    4.0080   -3.6190   -1.9910 C   0  0  0  1  0  0
    6.6050   -3.3320   -1.9520 C   0  0  2  1  0  0
    6.1030   -0.3110   -1.7600 C   0  0  0  1  0  0
    1.9920    1.0060   -0.4010 C   0  0  0  1  0  0
    0.6220   -0.6180   -1.7550 C   0  0  0  1  0  0
    5.4000   -1.6710    0.2290 C   0  0  0  1  0  0
    7.7260   -2.2810   -1.7290 C   0  0  0  1  0  0
    7.3890   -0.9230   -2.3540 C   0  0  0  1  0  0
    6.9040   -4.1450   -3.2170 C   0  0  0  1  0  0
    6.6390   -4.3040   -0.7950 C   0  0  0  1  0  0
   -0.2960   -0.0480   -2.5540 C   0  0  0  1  0  0
   -0.5800    1.4980    0.2170 C   0  0  2  1  0  0
   -2.1250    1.5490    0.0920 C   0  0  1  1  0  0
   -2.8550    1.4500    1.4550 C   0  0  2  1  0  0
   -0.6430    2.2220    2.5490 C   0  0  1  1  0  0
   -2.1890    2.3290    2.5370 C   0  0  1  1  0  0
   -0.1300    0.9220    3.1780 C   0  0  0  1  0  0
   -3.1750    2.5750   -1.7590 C   0  0  2  1  0  0
   -3.7150   -0.1540    2.9610 C   0  0  2  1  0  0
   -4.6810    2.3170   -1.5000 C   0  0  1  1  0  0
   -4.5720   -1.4140    2.6700 C   0  0  1  1  0  0
   -5.4690    2.2580   -2.8300 C   0  0  2  1  0  0
   -3.6120    3.6860   -3.8400 C   0  0  1  1  0  0
   -5.1380    3.4970   -3.6890 C   0  0  1  1  0  0
   -5.4340   -1.7920    3.8950 C   0  0  2  1  0  0
   -3.7060   -0.5750    5.3220 C   0  0  1  1  0  0
   -4.5480   -1.8590    5.1580 C   0  0  1  1  0  0
   -3.2430    4.9870   -4.5610 C   0  0  0  1  0  0
   -2.7060   -0.6650    6.4820 C   0  0  0  1  0  0
    3.5100   -0.4840   -2.3880 H   0  0  0  1  0  0
    5.1670   -2.2880   -3.1360 H   0  0  0  1  0  0
    0.9490   -2.1940    0.4430 H   0  0  0  1  0  0
    2.2570   -1.2380    1.0830 H   0  0  0  1  0  0
    2.2280   -3.9940   -0.8150 H   0  0  0  1  0  0
    3.5610   -3.3900    0.1150 H   0  0  0  1  0  0
    3.8130    0.3340    0.5010 H   0  0  0  1  0  0
    4.0760    1.3120   -0.9030 H   0  0  0  1  0  0
    0.8160   -2.6960   -2.1000 H   0  0  0  1  0  0
    1.8520   -1.7300   -3.1220 H   0  0  0  1  0  0
    3.4440   -3.5980   -2.9240 H   0  0  0  1  0  0
    4.3360   -4.6530   -1.8940 H   0  0  0  1  0  0
    6.3650    0.3770   -0.9550 H   0  0  0  1  0  0
    5.6540    0.3130   -2.5340 H   0  0  0  1  0  0
    1.7610    1.6750   -1.2300 H   0  0  0  1  0  0
    1.9120    1.6180    0.5020 H   0  0  0  1  0  0
    6.3270   -1.1800    0.5340 H   0  0  0  1  0  0
    4.5920   -1.3380    0.8800 H   0  0  0  1  0  0
    5.5270   -2.7420    0.3760 H   0  0  0  1  0  0
    7.8980   -2.1160   -0.6630 H   0  0  0  1  0  0
    8.6770   -2.6460   -2.1180 H   0  0  0  1  0  0
    8.2210   -0.2310   -2.2280 H   0  0  0  1  0  0
    7.2650   -1.0550   -3.4290 H   0  0  0  1  0  0
    7.8620   -4.6590   -3.1520 H   0  0  0  1  0  0
    6.9340   -3.4960   -4.0940 H   0  0  0  1  0  0
    6.1320   -4.8950   -3.3840 H   0  0  0  1  0  0
   -0.5510   -0.3390   -3.5640 H   0  0  0  1  0  0
   -0.8270    0.7900   -2.1250 H   0  0  0  1  0  0
   -0.1150    1.8150   -0.7180 H   0  0  0  1  0  0
   -2.4780    0.7690   -0.5860 H   0  0  0  1  0  0
   -3.9130    1.6960    1.3490 H   0  0  0  1  0  0
   -0.2270    3.0350    3.1450 H   0  0  0  1  0  0
   -2.5800    2.0770    3.5250 H   0  0  0  1  0  0
   -0.5260    0.0550    2.6470 H   0  0  0  1  0  0
   -0.3880    0.8770    4.2350 H   0  0  0  1  0  0
   -2.7090    1.7370   -2.2790 H   0  0  0  1  0  0
   -4.3400    0.7310    3.1000 H   0  0  0  1  0  0
   -5.0890    3.1090   -0.8650 H   0  0  0  1  0  0
   -3.9180   -2.2480    2.4040 H   0  0  0  1  0  0
   -5.2060    1.3500   -3.3740 H   0  0  0  1  0  0
   -3.1700    2.8430   -4.3720 H   0  0  0  1  0  0
   -5.5710    4.3930   -3.2370 H   0  0  0  1  0  0
   -6.2220   -1.0490    4.0350 H   0  0  0  1  0  0
   -4.3510    0.2930    5.4720 H   0  0  0  1  0  0
   -3.8840   -2.7240    5.1030 H   0  0  0  1  0  0
   -3.6160    4.9770   -5.5850 H   0  0  0  1  0  0
   -2.1650    5.1440   -4.5420 H   0  0  0  1  0  0
   -1.9140   -1.3770    6.2520 H   0  0  0  1  0  0
   -3.2150   -0.9350    7.4080 H   0  0  0  1  0  0
    7.9460   -5.2340    0.3840 H   0  0  0  1  0  0
   -2.2740    4.1790    3.1110 H   0  0  0  1  0  0
    1.5810    0.0740    3.4690 H   0  0  0  1  0  0
   -5.6950    1.1250   -0.3500 H   0  0  0  1  0  0
   -4.9210   -1.4090    0.7610 H   0  0  0  1  0  0
   -7.2990    1.9130   -3.3740 H   0  0  0  1  0  0
   -5.7880    4.2460   -5.3540 H   0  0  0  1  0  0
   -6.7790   -3.1250    4.3190 H   0  0  0  1  0  0
   -4.8090   -2.4300    6.9910 H   0  0  0  1  0  0
   -3.6110    6.8710   -4.3490 H   0  0  0  1  0  0
   -1.4910    0.5290    7.3920 H   0  0  0  1  0  0
  1 24  1  0
  1 39  1  0
  2 37  1  0
  2106  1  0
  3 37  2  0
  4 39  1  0
  4 42  1  0
  5 40  1  0
  5 45  1  0
  6 41  1  0
  6 46  1  0
  7 43  1  0
  7107  1  0
  8 45  1  0
  8 50  1  0
  9 44  1  0
  9108  1  0
 10 46  1  0
 10 53  1  0
 11 47  1  0
 11109  1  0
 12 48  1  0
 12110  1  0
 13 49  1  0
 13111  1  0
 14 51  1  0
 14112  1  0
 15 52  1  0
 15113  1  0
 16 54  1  0
 16114  1  0
 17 55  1  0
 17115  1  0
 18 56  1  0
 18116  1  0
 19 20  1  0
 19 23  1  0
 19 25  1  0
 19 27  1  0
 20 21  1  0
 20 26  1  0
 20 57  1  0
 21 22  1  0
 21 30  1  0
 21 33  1  0
 22 28  1  0
 22 29  1  0
 22 58  1  0
 23 24  1  0
 23 59  1  0
 23 60  1  0
 24 31  1  0
 24 32  1  0
 25 28  1  0
 25 61  1  0
 25 62  1  0
 26 31  1  0
 26 63  1  0
 26 64  1  0
 27 32  1  0
 27 65  1  0
 27 66  1  0
 28 67  1  0
 28 68  1  0
 29 34  1  0
 29 36  1  0
 29 37  1  0
 30 35  1  0
 30 69  1  0
 30 70  1  0
 31 71  1  0
 31 72  1  0
 32 38  2  0
 33 73  1  0
 33 74  1  0
 33 75  1  0
 34 35  1  0
 34 76  1  0
 34 77  1  0
 35 78  1  0
 35 79  1  0
 36 80  1  0
 36 81  1  0
 36 82  1  0
 38 83  1  0
 38 84  1  0
 39 40  1  0
 39 85  1  0
 40 41  1  0
 40 86  1  0
 41 43  1  0
 41 87  1  0
 42 43  1  0
 42 44  1  0
 42 88  1  0
 43 89  1  0
 44 90  1  0
 44 91  1  0
 45 47  1  0
 45 92  1  0
 46 48  1  0
 46 93  1  0
 47 49  1  0
 47 94  1  0
 48 52  1  0
 48 95  1  0
 49 51  1  0
 49 96  1  0
 50 51  1  0
 50 55  1  0
 50 97  1  0
 51 98  1  0
 52 54  1  0
 52 99  1  0
 53 54  1  0
 53 56  1  0
 53100  1  0
 54101  1  0
 55102  1  0
 55103  1  0
 56104  1  0
 56105  1  0
M  END
> <Name>
21593623

> <AbsoluteEnergy>
91.8514

> <ConfNumber>
1

> <Ionization pH>
7.73_P

> <IonizationIndex>
1

> <NumberOfIonizations>
2

> <NumberOfStereoisomers>
1

> <NumberOfTautomers>
1

> <OBJECTID>
9223374399090130957

> <PUBCHEM_ATOM_DEF_STEREO_COUNT>
21

> <PUBCHEM_ATOM_UDEF_STEREO_COUNT>
0

> <PUBCHEM_BONDANNOTATIONS>
24  1  6
39  1  5
47  11  5
48  12  6
49  13  6
51  14  5
52  15  5
54  16  6
19  25  6
20  57  5
21  33  6
22  58  5
29  36  5
42  44  5
40  5  6
45  5  6
50  55  6
53  56  5
41  6  5
46  6  5
43  7  6

> <PUBCHEM_BOND_DEF_STEREO_COUNT>
0

> <PUBCHEM_BOND_UDEF_STEREO_COUNT>
0

> <PUBCHEM_CACTVS_COMPLEXITY>
1450

> <PUBCHEM_CACTVS_HBOND_ACCEPTOR>
18

> <PUBCHEM_CACTVS_HBOND_DONOR>
11

> <PUBCHEM_CACTVS_ROTATABLE_BOND>
10

> <PUBCHEM_CACTVS_SUBSKEYS>
AAADcfB8PgAAAAAAAAAAAAAAAAAAAYAAAAA0aNECBgAAAADAAAAAGgAACAAAD1SwgAMCCAAABgCIAgDSCAAAAAAgAAAAAAEAAAgRFBIAIQAiQAAFgAAHIAHI6PyPgAAAAAAAAADAAAYAACAAAYAAAAAAAA==

> <PUBCHEM_CACTVS_TAUTO_COUNT>
1

> <PUBCHEM_CACTVS_TPSA>
295

> <PUBCHEM_COMPONENT_COUNT>
1

> <PUBCHEM_COMPOUND_CANONICALIZED>
1

> <PUBCHEM_COMPOUND_CID>
21593623

> <PUBCHEM_COORDINATE_TYPE>
1
5
255

> <PUBCHEM_EXACT_MASS>
804.37796506

> <PUBCHEM_HEAVY_ATOM_COUNT>
56

> <PUBCHEM_ISOTOPIC_ATOM_COUNT>
0

> <PUBCHEM_IUPAC_CAS_NAME>
(1R,4S,5R,9S,10R,13S)-13-[[(2S,3R,4S,5R,6R)-5-hydroxy-6-(hydroxymethyl)-3,4-bis[[(2S,3R,4S,5S,6R)-3,4,5-trihydroxy-6-(hydroxymethyl)-2-oxanyl]oxy]-2-oxanyl]oxy]-5,9-dimethyl-14-methylene-5-tetracyclo[
11.2.1.01,10.04,9]hexadecanecarboxylic acid

> <PUBCHEM_IUPAC_INCHI>
InChI=1S/C38H60O18/c1-16-11-37-9-5-20-35(2,7-4-8-36(20,3)34(49)50)21(37)6-10-38(16,15-37)56-33-30(55-32-28(48)26(46)23(43)18(13-40)52-32)29(24(44)19(14-41)53-33)54-31-27(47)25(45)22(42)17(12-39)51-31/
h17-33,39-48H,1,4-15H2,2-3H3,(H,49,50)/t17-,18-,19-,20+,21+,22-,23-,24-,25+,26+,27-,28-,29+,30-,31+,32+,33+,35-,36-,37-,38+/m1/s1

> <PUBCHEM_IUPAC_INCHIKEY>
DRSKVOAJKLUMCL-MMUIXFKXSA-N

> <PUBCHEM_IUPAC_NAME>
(1R,4S,5R,9S,10R,13S)-13-[(2S,3R,4S,5R,6R)-5-hydroxy-6-(hydroxymethyl)-3,4-bis[[(2S,3R,4S,5S,6R)-3,4,5-trihydroxy-6-(hydroxymethyl)oxan-2-yl]oxy]oxan-2-yl]oxy-5,9-dimethyl-14-methylidenetetracyclo[11.
2.1.01,10.04,9]hexadecane-5-carboxylic acid

> <PUBCHEM_IUPAC_NAME_MARKUP>
(1<I>R</I>,4<I>S</I>,5<I>R</I>,9<I>S</I>,10<I>R</I>,13<I>S</I>)-13-[(2<I>S</I>,3<I>R</I>,4<I>S</I>,5<I>R</I>,6<I>R</I>)-5-hydroxy-6-(hydroxymethyl)-3,4-bis[[(2<I>S</I>,3<I>R</I>,4<I>S</I>,5<I>S</I>,6<
I>R</I>)-3,4,5-trihydroxy-6-(hydroxymethyl)oxan-2-yl]oxy]oxan-2-yl]oxy-5,9-dimethyl-14-methylidenetetracyclo[11.2.1.0<SUP>1,10</SUP>.0<SUP>4,9</SUP>]hexadecane-5-carboxylic acid

> <PUBCHEM_IUPAC_OPENEYE_NAME>
(1R,4S,5R,9S,10R,13S)-13-[(2S,3R,4S,5R,6R)-5-hydroxy-6-(hydroxymethyl)-3,4-bis[[(2S,3R,4S,5S,6R)-3,4,5-trihydroxy-6-(hydroxymethyl)tetrahydropyran-2-yl]oxy]tetrahydropyran-2-yl]oxy-5,9-dimethyl-14-met
hylene-tetracyclo[11.2.1.01,10.04,9]hexadecane-5-carboxylic acid

> <PUBCHEM_IUPAC_SYSTEMATIC_NAME>
(1R,4S,5R,9S,10R,13S)-13-[(2S,3R,4S,5R,6R)-6-(hydroxymethyl)-3,4-bis[[(2S,3R,4S,5S,6R)-6-(hydroxymethyl)-3,4,5-tris(oxidanyl)oxan-2-yl]oxy]-5-oxidanyl-oxan-2-yl]oxy-5,9-dimethyl-14-methylidene-tetracy
clo[11.2.1.01,10.04,9]hexadecane-5-carboxylic acid

> <PUBCHEM_IUPAC_TRADITIONAL_NAME>
(1R,4S,5R,9S,10R,13S)-13-[(2S,3R,4S,5R,6R)-5-hydroxy-6-methylol-3,4-bis[[(2S,3R,4S,5S,6R)-3,4,5-trihydroxy-6-methylol-tetrahydropyran-2-yl]oxy]tetrahydropyran-2-yl]oxy-5,9-dimethyl-14-methylene-tetrac
yclo[11.2.1.01,10.04,9]hexadecane-5-carboxylic acid

> <PUBCHEM_MOLECULAR_FORMULA>
C38H60O18

> <PUBCHEM_MOLECULAR_WEIGHT>
804.9

> <PUBCHEM_MONOISOTOPIC_WEIGHT>
804.37796506

> <PUBCHEM_OPENEYE_CAN_SMILES>
CC12CCCC(C1CCC34C2CCC(C3)(C(=C)C4)OC5C(C(C(C(O5)CO)O)OC6C(C(C(C(O6)CO)O)O)O)OC7C(C(C(C(O7)CO)O)O)O)(C)C(=O)O

> <PUBCHEM_OPENEYE_ISO_SMILES>
C[C@@]12CCC[C@@]([C@H]1CC[C@]34[C@H]2CC[C@](C3)(C(=C)C4)O[C@H]5[C@@H]([C@H]([C@@H]([C@H](O5)CO)O)O[C@H]6[C@@H]([C@H]([C@@H]([C@H](O6)CO)O)O)O)O[C@H]7[C@@H]([C@H]([C@@H]([C@H](O7)CO)O)O)O)(C)C(=O)O

> <PUBCHEM_TOTAL_CHARGE>
0

> <PUBCHEM_XLOGP3_AA>
-1

> <RelativeEnergy>
0

> <StereoisomerIndex>
1

> <TautomerIndex>
1

> <LibDock Warning>
no hit found

> <ErrorText>
LibDock failed

$$$$
21593623
  SciTegic09112317153D

115121  0  0  0  0            999 V2000
    0.8390    0.0780   -0.0870 O   0  0  0  1  0  0
   -6.1260   -5.4820    1.1570 O   0  5  0  1  0  0
   -5.4320   -4.6170    2.9910 O   0  0  0  1  0  0
    1.7950   -0.2820   -2.2230 O   0  0  0  1  0  0
    2.3670    2.6580   -2.1190 O   0  0  0  1  0  0
    3.7370    0.7710    0.6410 O   0  0  0  1  0  0
    4.5340    0.7170   -2.8850 O   0  0  0  1  0  0
    0.2750    3.1020   -2.9700 O   0  0  0  1  0  0
    1.8020   -2.7600   -1.0410 O   0  0  0  1  0  0
    5.1010   -0.9480    1.3310 O   0  0  0  1  0  0
    2.8020    5.5110   -1.8600 O   0  0  0  1  0  0
    5.2700    2.6630    2.1330 O   0  0  0  1  0  0
    1.1320    7.0980   -3.6310 O   0  0  0  1  0  0
   -1.6110    6.1360   -3.7120 O   0  0  0  1  0  0
    6.9270    1.1420    4.2330 O   0  0  0  1  0  0
    8.0040   -0.4670    1.2580 O   0  0  0  1  0  0
   -2.3360    2.0530   -3.1460 O   0  0  0  1  0  0
    4.1850   -2.4600    3.3680 O   0  0  0  1  0  0
   -2.3720   -1.1360    1.1130 C   0  0  2  1  0  0
   -3.1110   -1.5310   -0.2120 C   0  0  2  1  0  0
   -4.1640   -2.6580   -0.0060 C   0  0  1  1  0  0
   -5.1250   -2.2270    1.1460 C   0  0  2  1  0  0
   -0.8400   -1.3040    0.9850 C   0  0  0  1  0  0
   -0.5390   -0.2510   -0.0930 C   0  0  2  1  0  0
   -2.8610   -1.8760    2.3670 C   0  0  0  1  0  0
   -2.1120   -1.8170   -1.3650 C   0  0  0  1  0  0
   -2.4540    0.3930    1.3060 C   0  0  0  1  0  0
   -4.3930   -1.8850    2.4680 C   0  0  0  1  0  0
   -6.3470   -3.1700    1.3480 C   0  0  2  1  0  0
   -4.9870   -2.8520   -1.3010 C   0  0  0  1  0  0
   -0.9670   -0.7870   -1.4740 C   0  0  0  1  0  0
   -1.3980    0.8980    0.3680 C   0  0  0  1  0  0
   -3.4630   -3.9880    0.3160 C   0  0  0  1  0  0
   -7.0930   -3.3640    0.0130 C   0  0  0  1  0  0
   -6.1660   -3.8150   -1.1240 C   0  0  0  1  0  0
   -7.3160   -2.5610    2.3700 C   0  0  0  1  0  0
   -5.9290   -4.5160    1.8930 C   0  0  0  1  0  0
   -1.2580    2.1840   -0.0020 C   0  0  0  1  0  0
    1.2740    0.6710   -1.2920 C   0  0  2  1  0  0
    2.2970    1.8010   -0.9950 C   0  0  1  1  0  0
    3.7190    1.2750   -0.6810 C   0  0  2  1  0  0
    3.0390   -0.9060   -1.8940 C   0  0  1  1  0  0
    4.1500    0.1450   -1.6450 C   0  0  1  1  0  0
    2.8500   -1.8750   -0.7180 C   0  0  0  1  0  0
    1.3240    3.6120   -2.1550 C   0  0  2  1  0  0
    5.0360    0.4610    1.1020 C   0  0  2  1  0  0
    1.8360    4.9550   -2.7380 C   0  0  1  1  0  0
    5.3900    1.2710    2.3770 C   0  0  1  1  0  0
    0.6750    5.9580   -2.9240 C   0  0  2  1  0  0
   -0.8750    3.9360   -3.0660 C   0  0  1  1  0  0
   -0.4770    5.2850   -3.7010 C   0  0  1  1  0  0
    6.8420    0.9690    2.8310 C   0  0  2  1  0  0
    6.0440   -1.4170    2.2980 C   0  0  1  1  0  0
    7.2640   -0.4790    2.4670 C   0  0  1  1  0  0
   -1.9120    3.1700   -3.8930 C   0  0  0  1  0  0
    5.2820   -1.6110    3.6150 C   0  0  0  1  0  0
   -3.6810   -0.6630   -0.5470 H   0  0  0  1  0  0
   -5.5510   -1.2800    0.8090 H   0  0  0  1  0  0
   -0.3460   -1.0730    1.9200 H   0  0  0  1  0  0
   -0.5430   -2.3040    0.7040 H   0  0  0  1  0  0
   -2.4920   -2.9000    2.3600 H   0  0  0  1  0  0
   -2.4380   -1.4290    3.2690 H   0  0  0  1  0  0
   -1.6720   -2.8030   -1.2150 H   0  0  0  1  0  0
   -2.6290   -1.8680   -2.3220 H   0  0  0  1  0  0
   -2.2030    0.6880    2.3160 H   0  0  0  1  0  0
   -3.4290    0.7980    1.0740 H   0  0  0  1  0  0
   -4.6710   -2.5800    3.2610 H   0  0  0  1  0  0
   -4.7300   -0.9070    2.8150 H   0  0  0  1  0  0
   -5.3700   -1.8870   -1.6380 H   0  0  0  1  0  0
   -4.3540   -3.2240   -2.1060 H   0  0  0  1  0  0
   -0.1330   -1.2670   -1.9890 H   0  0  0  1  0  0
   -1.2710    0.0420   -2.1160 H   0  0  0  1  0  0
   -3.7930   -4.7740   -0.3640 H   0  0  0  1  0  0
   -2.3800   -3.8820    0.2370 H   0  0  0  1  0  0
   -3.6910   -4.3100    1.3320 H   0  0  0  1  0  0
   -7.5600   -2.4220   -0.2770 H   0  0  0  1  0  0
   -7.9090   -4.0800    0.1280 H   0  0  0  1  0  0
   -6.7310   -3.8780   -2.0530 H   0  0  0  1  0  0
   -5.7950   -4.8200   -0.9230 H   0  0  0  1  0  0
   -8.2120   -3.1700    2.4940 H   0  0  0  1  0  0
   -7.6310   -1.5660    2.0570 H   0  0  0  1  0  0
   -6.8400   -2.4700    3.3470 H   0  0  0  1  0  0
   -1.8980    3.0110    0.2710 H   0  0  0  1  0  0
   -0.4110    2.3930   -0.6390 H   0  0  0  1  0  0
    0.3730    1.0880   -1.7430 H   0  0  0  1  0  0
    1.9380    2.4370   -0.1840 H   0  0  0  1  0  0
    4.4470    2.0890   -0.6840 H   0  0  0  1  0  0
    3.3040   -1.5180   -2.7570 H   0  0  0  1  0  0
    5.0480   -0.3510   -1.2750 H   0  0  0  1  0  0
    2.5720   -1.3330    0.1860 H   0  0  0  1  0  0
    3.7540   -2.4630   -0.5560 H   0  0  0  1  0  0
    0.9440    3.7340   -1.1400 H   0  0  0  1  0  0
    5.7350    0.7000    0.3000 H   0  0  0  1  0  0
    2.3270    4.7760   -3.6980 H   0  0  0  1  0  0
    4.6700    1.0240    3.1620 H   0  0  0  1  0  0
    0.3160    6.2910   -1.9480 H   0  0  0  1  0  0
   -1.2600    4.0850   -2.0540 H   0  0  0  1  0  0
   -0.1830    5.1250   -4.7400 H   0  0  0  1  0  0
    7.5510    1.6830    2.4030 H   0  0  0  1  0  0
    6.3670   -2.4030    1.9620 H   0  0  0  1  0  0
    7.9450   -0.8920    3.2110 H   0  0  0  1  0  0
   -1.4740    2.8130   -4.8230 H   0  0  0  1  0  0
   -2.7830    3.7950   -4.0910 H   0  0  0  1  0  0
    4.9010   -0.6600    3.9840 H   0  0  0  1  0  0
    5.9190   -2.0890    4.3600 H   0  0  0  1  0  0
    4.8940    0.0000   -3.4310 H   0  0  0  1  0  0
    1.6950   -3.3630   -0.2880 H   0  0  0  1  0  0
    3.5810    4.9330   -1.8890 H   0  0  0  1  0  0
    4.3250    2.8540    2.0330 H   0  0  0  1  0  0
    0.4180    7.7560   -3.6060 H   0  0  0  1  0  0
   -2.1690    5.8570   -4.4530 H   0  0  0  1  0  0
    7.8600    1.0350    4.4790 H   0  0  0  1  0  0
    8.3160   -1.3740    1.1030 H   0  0  0  1  0  0
   -2.9880    1.5780   -3.6870 H   0  0  0  1  0  0
    3.7120   -2.5660    4.2080 H   0  0  0  1  0  0
  1 24  1  0
  1 39  1  0
  2 37  1  0
  3 37  2  0
  4 39  1  0
  4 42  1  0
  5 40  1  0
  5 45  1  0
  6 41  1  0
  6 46  1  0
  7 43  1  0
  7106  1  0
  8 45  1  0
  8 50  1  0
  9 44  1  0
  9107  1  0
 10 46  1  0
 10 53  1  0
 11 47  1  0
 11108  1  0
 12 48  1  0
 12109  1  0
 13 49  1  0
 13110  1  0
 14 51  1  0
 14111  1  0
 15 52  1  0
 15112  1  0
 16 54  1  0
 16113  1  0
 17 55  1  0
 17114  1  0
 18 56  1  0
 18115  1  0
 19 20  1  0
 19 23  1  0
 19 25  1  0
 19 27  1  0
 20 21  1  0
 20 26  1  0
 20 57  1  0
 21 22  1  0
 21 30  1  0
 21 33  1  0
 22 28  1  0
 22 29  1  0
 22 58  1  0
 23 24  1  0
 23 59  1  0
 23 60  1  0
 24 31  1  0
 24 32  1  0
 25 28  1  0
 25 61  1  0
 25 62  1  0
 26 31  1  0
 26 63  1  0
 26 64  1  0
 27 32  1  0
 27 65  1  0
 27 66  1  0
 28 67  1  0
 28 68  1  0
 29 34  1  0
 29 36  1  0
 29 37  1  0
 30 35  1  0
 30 69  1  0
 30 70  1  0
 31 71  1  0
 31 72  1  0
 32 38  2  0
 33 73  1  0
 33 74  1  0
 33 75  1  0
 34 35  1  0
 34 76  1  0
 34 77  1  0
 35 78  1  0
 35 79  1  0
 36 80  1  0
 36 81  1  0
 36 82  1  0
 38 83  1  0
 38 84  1  0
 39 40  1  0
 39 85  1  0
 40 41  1  0
 40 86  1  0
 41 43  1  0
 41 87  1  0
 42 43  1  0
 42 44  1  0
 42 88  1  0
 43 89  1  0
 44 90  1  0
 44 91  1  0
 45 47  1  0
 45 92  1  0
 46 48  1  0
 46 93  1  0
 47 49  1  0
 47 94  1  0
 48 52  1  0
 48 95  1  0
 49 51  1  0
 49 96  1  0
 50 51  1  0
 50 55  1  0
 50 97  1  0
 51 98  1  0
 52 54  1  0
 52 99  1  0
 53 54  1  0
 53 56  1  0
 53100  1  0
 54101  1  0
 55102  1  0
 55103  1  0
 56104  1  0
 56105  1  0
M  CHG  1   2  -1
M  END
> <Name>
21593623

> <AbsoluteEnergy>
92.7457

> <ConfNumber>
1

> <Ionization pH>
7.73_D

> <IonizationIndex>
2

> <NumberOfIonizations>
2

> <NumberOfStereoisomers>
1

> <NumberOfTautomers>
1

> <OBJECTID>
9223374403385098253

> <PUBCHEM_ATOM_DEF_STEREO_COUNT>
21

> <PUBCHEM_ATOM_UDEF_STEREO_COUNT>
0

> <PUBCHEM_BONDANNOTATIONS>
24  1  6
39  1  5
47  11  5
48  12  6
49  13  6
51  14  5
52  15  5
54  16  6
19  25  6
20  57  5
21  33  6
22  58  5
29  36  5
42  44  5
40  5  6
45  5  6
50  55  6
53  56  5
41  6  5
46  6  5
43  7  6

> <PUBCHEM_BOND_DEF_STEREO_COUNT>
0

> <PUBCHEM_BOND_UDEF_STEREO_COUNT>
0

> <PUBCHEM_CACTVS_COMPLEXITY>
1450

> <PUBCHEM_CACTVS_HBOND_ACCEPTOR>
18

> <PUBCHEM_CACTVS_HBOND_DONOR>
11

> <PUBCHEM_CACTVS_ROTATABLE_BOND>
10

> <PUBCHEM_CACTVS_SUBSKEYS>
AAADcfB8PgAAAAAAAAAAAAAAAAAAAYAAAAA0aNECBgAAAADAAAAAGgAACAAAD1SwgAMCCAAABgCIAgDSCAAAAAAgAAAAAAEAAAgRFBIAIQAiQAAFgAAHIAHI6PyPgAAAAAAAAADAAAYAACAAAYAAAAAAAA==

> <PUBCHEM_CACTVS_TAUTO_COUNT>
1

> <PUBCHEM_CACTVS_TPSA>
295

> <PUBCHEM_COMPONENT_COUNT>
1

> <PUBCHEM_COMPOUND_CANONICALIZED>
1

> <PUBCHEM_COMPOUND_CID>
21593623

> <PUBCHEM_COORDINATE_TYPE>
1
5
255

> <PUBCHEM_EXACT_MASS>
804.37796506

> <PUBCHEM_HEAVY_ATOM_COUNT>
56

> <PUBCHEM_ISOTOPIC_ATOM_COUNT>
0

> <PUBCHEM_IUPAC_CAS_NAME>
(1R,4S,5R,9S,10R,13S)-13-[[(2S,3R,4S,5R,6R)-5-hydroxy-6-(hydroxymethyl)-3,4-bis[[(2S,3R,4S,5S,6R)-3,4,5-trihydroxy-6-(hydroxymethyl)-2-oxanyl]oxy]-2-oxanyl]oxy]-5,9-dimethyl-14-methylene-5-tetracyclo[
11.2.1.01,10.04,9]hexadecanecarboxylic acid

> <PUBCHEM_IUPAC_INCHI>
InChI=1S/C38H60O18/c1-16-11-37-9-5-20-35(2,7-4-8-36(20,3)34(49)50)21(37)6-10-38(16,15-37)56-33-30(55-32-28(48)26(46)23(43)18(13-40)52-32)29(24(44)19(14-41)53-33)54-31-27(47)25(45)22(42)17(12-39)51-31/
h17-33,39-48H,1,4-15H2,2-3H3,(H,49,50)/t17-,18-,19-,20+,21+,22-,23-,24-,25+,26+,27-,28-,29+,30-,31+,32+,33+,35-,36-,37-,38+/m1/s1

> <PUBCHEM_IUPAC_INCHIKEY>
DRSKVOAJKLUMCL-MMUIXFKXSA-N

> <PUBCHEM_IUPAC_NAME>
(1R,4S,5R,9S,10R,13S)-13-[(2S,3R,4S,5R,6R)-5-hydroxy-6-(hydroxymethyl)-3,4-bis[[(2S,3R,4S,5S,6R)-3,4,5-trihydroxy-6-(hydroxymethyl)oxan-2-yl]oxy]oxan-2-yl]oxy-5,9-dimethyl-14-methylidenetetracyclo[11.
2.1.01,10.04,9]hexadecane-5-carboxylic acid

> <PUBCHEM_IUPAC_NAME_MARKUP>
(1<I>R</I>,4<I>S</I>,5<I>R</I>,9<I>S</I>,10<I>R</I>,13<I>S</I>)-13-[(2<I>S</I>,3<I>R</I>,4<I>S</I>,5<I>R</I>,6<I>R</I>)-5-hydroxy-6-(hydroxymethyl)-3,4-bis[[(2<I>S</I>,3<I>R</I>,4<I>S</I>,5<I>S</I>,6<
I>R</I>)-3,4,5-trihydroxy-6-(hydroxymethyl)oxan-2-yl]oxy]oxan-2-yl]oxy-5,9-dimethyl-14-methylidenetetracyclo[11.2.1.0<SUP>1,10</SUP>.0<SUP>4,9</SUP>]hexadecane-5-carboxylic acid

> <PUBCHEM_IUPAC_OPENEYE_NAME>
(1R,4S,5R,9S,10R,13S)-13-[(2S,3R,4S,5R,6R)-5-hydroxy-6-(hydroxymethyl)-3,4-bis[[(2S,3R,4S,5S,6R)-3,4,5-trihydroxy-6-(hydroxymethyl)tetrahydropyran-2-yl]oxy]tetrahydropyran-2-yl]oxy-5,9-dimethyl-14-met
hylene-tetracyclo[11.2.1.01,10.04,9]hexadecane-5-carboxylic acid

> <PUBCHEM_IUPAC_SYSTEMATIC_NAME>
(1R,4S,5R,9S,10R,13S)-13-[(2S,3R,4S,5R,6R)-6-(hydroxymethyl)-3,4-bis[[(2S,3R,4S,5S,6R)-6-(hydroxymethyl)-3,4,5-tris(oxidanyl)oxan-2-yl]oxy]-5-oxidanyl-oxan-2-yl]oxy-5,9-dimethyl-14-methylidene-tetracy
clo[11.2.1.01,10.04,9]hexadecane-5-carboxylic acid

> <PUBCHEM_IUPAC_TRADITIONAL_NAME>
(1R,4S,5R,9S,10R,13S)-13-[(2S,3R,4S,5R,6R)-5-hydroxy-6-methylol-3,4-bis[[(2S,3R,4S,5S,6R)-3,4,5-trihydroxy-6-methylol-tetrahydropyran-2-yl]oxy]tetrahydropyran-2-yl]oxy-5,9-dimethyl-14-methylene-tetrac
yclo[11.2.1.01,10.04,9]hexadecane-5-carboxylic acid

> <PUBCHEM_MOLECULAR_FORMULA>
C38H60O18

> <PUBCHEM_MOLECULAR_WEIGHT>
804.9

> <PUBCHEM_MONOISOTOPIC_WEIGHT>
804.37796506

> <PUBCHEM_OPENEYE_CAN_SMILES>
CC12CCCC(C1CCC34C2CCC(C3)(C(=C)C4)OC5C(C(C(C(O5)CO)O)OC6C(C(C(C(O6)CO)O)O)O)OC7C(C(C(C(O7)CO)O)O)O)(C)C(=O)O

> <PUBCHEM_OPENEYE_ISO_SMILES>
C[C@@]12CCC[C@@]([C@H]1CC[C@]34[C@H]2CC[C@](C3)(C(=C)C4)O[C@H]5[C@@H]([C@H]([C@@H]([C@H](O5)CO)O)O[C@H]6[C@@H]([C@H]([C@@H]([C@H](O6)CO)O)O)O)O[C@H]7[C@@H]([C@H]([C@@H]([C@H](O7)CO)O)O)O)(C)C(=O)O

> <PUBCHEM_TOTAL_CHARGE>
0

> <PUBCHEM_XLOGP3_AA>
-1

> <RelativeEnergy>
0

> <StereoisomerIndex>
1

> <TautomerIndex>
1

> <LibDock Warning>
no hit found

> <ErrorText>
LibDock failed

$$$$
23250007
  SciTegic09112317153D

 51 52  0  0  0  0            999 V2000
   -2.4250   -5.6770    0.5290 O   0  0  0  1  0  0
   -0.7430   -1.9010   -1.2910 O   0  0  0  1  0  0
    1.4230   -3.0010    2.6710 O   0  0  0  1  0  0
    2.0150    1.3510    0.9510 O   0  0  0  1  0  0
   -0.5420    0.4180   -2.3350 O   0  0  0  1  0  0
    2.6480    8.1580   -2.1860 O   0  0  0  1  0  0
   -2.6870   -4.4670    1.2030 C   0  0  0  1  0  0
   -1.3020   -4.1190    1.7500 C   0  0  0  1  0  0
   -0.2710   -3.8880    0.6460 C   0  0  0  1  0  0
    0.3120   -2.4980    0.6860 C   0  0  0  1  0  0
   -3.7060   -4.7470    2.3090 C   0  0  0  1  0  0
   -3.1900   -3.4480    0.1810 C   0  0  0  1  0  0
   -0.0180   -1.5410   -0.3940 C   0  0  0  1  0  0
    1.1250   -2.1380    1.6990 C   0  0  0  1  0  0
    0.5520   -0.1650   -0.3480 C   0  0  0  1  0  0
    1.6980   -0.7790    1.7460 C   0  0  0  1  0  0
    1.4440    0.1550    0.8060 C   0  0  0  1  0  0
    0.2590    0.7400   -1.3190 C   0  0  0  1  0  0
    0.7910    2.1130   -1.3240 C   0  0  0  1  0  0
    0.5270    2.9480   -2.3420 C   0  0  0  1  0  0
    1.6310    1.9900    2.1600 C   0  0  0  1  0  0
    1.0900    4.3290   -2.3000 C   0  0  0  1  0  0
    0.8300    5.2280   -3.3510 C   0  0  0  1  0  0
    1.8810    4.7360   -1.2090 C   0  0  0  1  0  0
    1.3610    6.5280   -3.3100 C   0  0  0  1  0  0
    2.4090    6.0370   -1.1720 C   0  0  0  1  0  0
    2.1510    6.9360   -2.2220 C   0  0  0  1  0  0
   -1.3570   -3.2550    2.4150 H   0  0  0  1  0  0
   -0.9600   -4.8850    2.4460 H   0  0  0  1  0  0
   -0.7990   -4.0420   -0.2930 H   0  0  0  1  0  0
    0.5290   -4.6270    0.7060 H   0  0  0  1  0  0
   -3.3530   -5.5080    3.0030 H   0  0  0  1  0  0
   -4.6480   -5.0960    1.8850 H   0  0  0  1  0  0
   -3.9120   -3.8420    2.8790 H   0  0  0  1  0  0
   -2.6310   -3.4990   -0.7530 H   0  0  0  1  0  0
   -3.0980   -2.4340    0.5690 H   0  0  0  1  0  0
   -4.2400   -3.6220   -0.0510 H   0  0  0  1  0  0
    2.3470   -0.5260    2.5720 H   0  0  0  1  0  0
    1.4080    2.5230   -0.5370 H   0  0  0  1  0  0
   -0.0710    2.6990   -3.2060 H   0  0  0  1  0  0
    1.9060    3.0410    2.0920 H   0  0  0  1  0  0
    0.5770    1.7780    2.3370 H   0  0  0  1  0  0
    2.2030    1.5470    2.9750 H   0  0  0  1  0  0
    0.2240    4.9240   -4.1930 H   0  0  0  1  0  0
    2.0840    4.0530   -0.3980 H   0  0  0  1  0  0
    1.1590    7.2150   -4.1210 H   0  0  0  1  0  0
    3.0150    6.3440   -0.3340 H   0  0  0  1  0  0
   -2.3470   -5.4660   -0.4150 H   0  0  0  1  0  0
    2.0080   -2.7230    3.3870 H   0  0  0  1  0  0
    3.1900    8.4260   -1.4310 H   0  0  0  1  0  0
   -1.4370    0.1070   -2.1500 H   0  0  0  1  0  0
  1  7  1  0
  1 48  1  0
  2 13  2  0
  3 14  1  0
  3 49  1  0
  4 17  1  0
  4 21  1  0
  5 18  1  0
  5 51  1  0
  6 27  1  0
  6 50  1  0
  7  8  1  0
  7 11  1  0
  7 12  1  0
  8  9  1  0
  8 28  1  0
  8 29  1  0
  9 10  1  0
  9 30  1  0
  9 31  1  0
 10 13  1  0
 10 14  2  0
 11 32  1  0
 11 33  1  0
 11 34  1  0
 12 35  1  0
 12 36  1  0
 12 37  1  0
 13 15  1  0
 14 16  1  0
 15 17  1  0
 15 18  2  0
 16 17  2  0
 16 38  1  0
 18 19  1  0
 19 20  2  0
 19 39  1  0
 20 22  1  0
 20 40  1  0
 21 41  1  0
 21 42  1  0
 21 43  1  0
 22 23  2  0
 22 24  1  0
 23 25  1  0
 23 44  1  0
 24 26  2  0
 24 45  1  0
 25 27  2  0
 25 46  1  0
 26 27  1  0
 26 47  1  0
M  END
> <Name>
23250007

> <AbsoluteEnergy>
65.5981

> <ConfNumber>
1

> <Ionization pH>
7.5

> <IonizationIndex>
1

> <NumberOfIonizations>
1

> <NumberOfStereoisomers>
1

> <NumberOfTautomers>
4

> <OBJECTID>
9223374442039803917

> <PUBCHEM_ATOM_DEF_STEREO_COUNT>
0

> <PUBCHEM_ATOM_UDEF_STEREO_COUNT>
0

> <PUBCHEM_BOND_DEF_STEREO_COUNT>
1

> <PUBCHEM_BOND_UDEF_STEREO_COUNT>
0

> <PUBCHEM_CACTVS_TAUTO_COUNT>
57

> <PUBCHEM_COMPONENT_COUNT>
1

> <PUBCHEM_COMPOUND_CID>
23250007

> <PUBCHEM_CONFORMER_DIVERSEORDER>
4
118
119
32
127
128
24
73
20
106
87
96
66
91
67
92
80
77
95
64
6
39
61
109
18
50
12
13
90
60
41
72
28
75
16
62
30
3
86
125
25
111
35
27
120
68
58
48
63
81
1
101
29
43
108
93
26
113
55
47
70
124
107
56
44
8
36
103
9
57
79
52
78
97
104
34
110
83
21
5
17
84
23
53
69
114
105
71
117
11
85
102
115
116
94
54
31
65
51
88
122
42
89
14
82
76
98
22
38
123
112
126
74
46
100
99
19
15
33
59
45
10
7
49
40
121
37
2

> <PUBCHEM_CONFORMER_ID>
0162C45700000004

> <PUBCHEM_CONFORMER_RMSD>
0.8

> <PUBCHEM_COORDINATE_TYPE>
2
5
10

> <PUBCHEM_EFFECTIVE_ROTOR_COUNT>
7

> <PUBCHEM_FEATURE_SELFOVERLAP>
50.748

> <PUBCHEM_HEAVY_ATOM_COUNT>
27

> <PUBCHEM_ISOTOPIC_ATOM_COUNT>
0

> <PUBCHEM_MMFF94_ENERGY>
93.1632

> <PUBCHEM_MMFF94_PARTIAL_CHARGES>
35
1 -0.68
10 -0.14
13 0.08
14 0.08
15 0.09
16 -0.15
17 0.08
18 0.47
19 -0.14
2 -0.53
20 -0.18
21 0.28
22 0.03
23 -0.15
24 -0.15
25 -0.15
26 -0.15
27 0.08
3 -0.53
38 0.4
39 0.15
4 -0.36
40 0.45
41 0.45
42 0.15
43 0.15
47 0.15
48 0.15
49 0.15
5 -0.57
50 0.15
51 0.45
6 -0.53
7 0.28
9 0.14

> <PUBCHEM_PHARMACOPHORE_FEATURES>
10
1 1 acceptor
1 1 donor
1 2 donor
1 3 donor
1 4 acceptor
1 5 acceptor
1 6 donor
3 7 11 12 hydrophobe
6 10 13 14 15 16 17 rings
6 22 23 24 25 26 27 rings

> <PUBCHEM_SHAPE_FINGERPRINT>
10411042 1 17761769564441536106
10670039 82 17060351694804780721
10816530 23 18408044009572030219
11505856 67 17395314849947220262
1200032 147 18261394472810466664
12390115 104 18266746959490706206
12422481 6 17241033401315261316
12788726 201 17489597718869262601
13540713 5 18193534861591862338
13885169 86 18265900331211332981
13955234 65 18190180096400531491
14251764 75 18411421747461498473
14347332 77 8935006971167153419
14790565 3 18337389456462824116
14840074 17 18261113019019033221
14849402 71 18266178340296979378
15238133 3 17988914583498985712
15475509 35 16081638955996905938
15475509 8 18200883855904790974
1979834 28 17968103005696527245
20511986 3 17629456646215590435
20739085 24 18259985951033157220
21033648 144 18187355558924521551
21424621 283 18271240655382766000
21756936 100 18196932390927833070
23845131 108 18261671570931010115
283562 15 17251730756601665490
3178227 256 18188489069661540938
38570 142 18341624736592731820
397830 11 18040726874693754881
4058900 60 18410864260611207699
474 4 18412256216747232627
5104073 3 18114177557995295155
57724786 102 18340488872483185341
59682541 52 15984834709281717044
6034566 193 18262800812168759117
633830 44 18343299275421999318
636775 72 17693932295832437920
77188 2 17689153413911391990

> <PUBCHEM_SHAPE_MULTIPOLES>
520.43
16.09
4.96
1.35
19
3.36
-0.13
-21.02
2.35
-7.36
0.15
0.52
-0.13
-2.57

> <PUBCHEM_SHAPE_SELFOVERLAP>
1103.078

> <PUBCHEM_SHAPE_VOLUME>
292.1

> <RelativeEnergy>
0

> <StereoisomerIndex>
1

> <TautomerIndex>
3

> <LibDock Warning>
no hit found

> <ErrorText>
LibDock failed

$$$$
23250007
  SciTegic09112317153D

 51 52  0  0  0  0            999 V2000
   -1.9220   -3.9450   -0.9260 O   0  0  0  1  0  0
   -1.9300   -1.1840   -0.3240 O   0  0  0  1  0  0
    0.2460   -2.5400    3.5480 O   0  0  0  1  0  0
    1.9870    1.2030    1.4840 O   0  0  0  1  0  0
   -1.0220    0.8540   -1.5120 O   0  0  0  1  0  0
    4.2630    7.2980   -2.2540 O   0  0  0  1  0  0
   -2.0890   -4.9430    0.0560 C   0  0  0  1  0  0
   -1.3000   -4.3520    1.2250 C   0  0  0  1  0  0
   -1.8740   -3.0220    1.7140 C   0  0  0  1  0  0
   -0.8810   -1.8910    1.6030 C   0  0  0  1  0  0
   -1.4770   -6.2390   -0.4730 C   0  0  0  1  0  0
   -3.5820   -5.0730    0.3580 C   0  0  0  1  0  0
   -0.9600   -1.0160    0.5760 C   0  0  0  1  0  0
    0.1690   -1.7580    2.6290 C   0  0  0  1  0  0
    0.0160    0.1110    0.4520 C   0  0  0  1  0  0
    1.1320   -0.6510    2.5180 C   0  0  0  1  0  0
    1.0750    0.2340    1.5040 C   0  0  0  1  0  0
   -0.0730    0.9830   -0.5880 C   0  0  0  1  0  0
    0.8540    2.1120   -0.7680 C   0  0  0  1  0  0
    0.6160    3.0480   -1.7020 C   0  0  0  1  0  0
    1.6250    2.3060    2.3040 C   0  0  0  1  0  0
    1.5840    4.1760   -1.8490 C   0  0  0  1  0  0
    1.3120    5.2250   -2.7450 C   0  0  0  1  0  0
    2.7700    4.1910   -1.0910 C   0  0  0  1  0  0
    2.2240    6.2870   -2.8810 C   0  0  0  1  0  0
    3.6790    5.2530   -1.2300 C   0  0  0  1  0  0
    3.4090    6.3030   -2.1250 C   0  0  0  1  0  0
   -1.2340   -5.0660    2.0450 H   0  0  0  1  0  0
   -0.2460   -4.2440    0.9640 H   0  0  0  1  0  0
   -2.1460   -3.1770    2.7580 H   0  0  0  1  0  0
   -2.7820   -2.7710    1.1660 H   0  0  0  1  0  0
   -0.4270   -6.1130   -0.7420 H   0  0  0  1  0  0
   -2.0080   -6.5830   -1.3610 H   0  0  0  1  0  0
   -1.5350   -7.0280    0.2770 H   0  0  0  1  0  0
   -4.0930   -4.1130    0.3070 H   0  0  0  1  0  0
   -3.7370   -5.4830    1.3570 H   0  0  0  1  0  0
   -4.0610   -5.7450   -0.3550 H   0  0  0  1  0  0
    1.9010   -0.5520    3.2710 H   0  0  0  1  0  0
    1.7500    2.2590   -0.1830 H   0  0  0  1  0  0
   -0.2320    3.0530   -2.3710 H   0  0  0  1  0  0
    2.2820    3.1410    2.0620 H   0  0  0  1  0  0
    0.5560    2.4820    2.1830 H   0  0  0  1  0  0
    1.8030    2.0300    3.3430 H   0  0  0  1  0  0
    0.4040    5.2240   -3.3310 H   0  0  0  1  0  0
    2.9860    3.3880   -0.4010 H   0  0  0  1  0  0
    2.0120    7.0900   -3.5700 H   0  0  0  1  0  0
    4.5880    5.2590   -0.6460 H   0  0  0  1  0  0
   -2.7090   -3.9690   -1.4940 H   0  0  0  1  0  0
   -2.4980   -0.4360   -0.5520 H   0  0  0  1  0  0
    5.0740    7.2970   -1.7280 H   0  0  0  1  0  0
   -1.0020    0.0930   -2.1080 H   0  0  0  1  0  0
  1  7  1  0
  1 48  1  0
  2 13  1  0
  2 49  1  0
  3 14  2  0
  4 17  1  0
  4 21  1  0
  5 18  1  0
  5 51  1  0
  6 27  1  0
  6 50  1  0
  7  8  1  0
  7 11  1  0
  7 12  1  0
  8  9  1  0
  8 28  1  0
  8 29  1  0
  9 10  1  0
  9 30  1  0
  9 31  1  0
 10 13  2  0
 10 14  1  0
 11 32  1  0
 11 33  1  0
 11 34  1  0
 12 35  1  0
 12 36  1  0
 12 37  1  0
 13 15  1  0
 14 16  1  0
 15 17  1  0
 15 18  2  0
 16 17  2  0
 16 38  1  0
 18 19  1  0
 19 20  2  0
 19 39  1  0
 20 22  1  0
 20 40  1  0
 21 41  1  0
 21 42  1  0
 21 43  1  0
 22 23  2  0
 22 24  1  0
 23 25  1  0
 23 44  1  0
 24 26  2  0
 24 45  1  0
 25 27  2  0
 25 46  1  0
 26 27  1  0
 26 47  1  0
M  END
> <Name>
23250007

> <AbsoluteEnergy>
70.076

> <ConfNumber>
1

> <Ionization pH>
7.5

> <IonizationIndex>
1

> <NumberOfIonizations>
1

> <NumberOfStereoisomers>
1

> <NumberOfTautomers>
4

> <OBJECTID>
9223374446334771213

> <PUBCHEM_ATOM_DEF_STEREO_COUNT>
0

> <PUBCHEM_ATOM_UDEF_STEREO_COUNT>
0

> <PUBCHEM_BOND_DEF_STEREO_COUNT>
1

> <PUBCHEM_BOND_UDEF_STEREO_COUNT>
0

> <PUBCHEM_CACTVS_TAUTO_COUNT>
57

> <PUBCHEM_COMPONENT_COUNT>
1

> <PUBCHEM_COMPOUND_CID>
23250007

> <PUBCHEM_CONFORMER_DIVERSEORDER>
4
118
119
32
127
128
24
73
20
106
87
96
66
91
67
92
80
77
95
64
6
39
61
109
18
50
12
13
90
60
41
72
28
75
16
62
30
3
86
125
25
111
35
27
120
68
58
48
63
81
1
101
29
43
108
93
26
113
55
47
70
124
107
56
44
8
36
103
9
57
79
52
78
97
104
34
110
83
21
5
17
84
23
53
69
114
105
71
117
11
85
102
115
116
94
54
31
65
51
88
122
42
89
14
82
76
98
22
38
123
112
126
74
46
100
99
19
15
33
59
45
10
7
49
40
121
37
2

> <PUBCHEM_CONFORMER_ID>
0162C45700000004

> <PUBCHEM_CONFORMER_RMSD>
0.8

> <PUBCHEM_COORDINATE_TYPE>
2
5
10

> <PUBCHEM_EFFECTIVE_ROTOR_COUNT>
7

> <PUBCHEM_FEATURE_SELFOVERLAP>
50.748

> <PUBCHEM_HEAVY_ATOM_COUNT>
27

> <PUBCHEM_ISOTOPIC_ATOM_COUNT>
0

> <PUBCHEM_MMFF94_ENERGY>
93.1632

> <PUBCHEM_MMFF94_PARTIAL_CHARGES>
35
1 -0.68
10 -0.14
13 0.08
14 0.08
15 0.09
16 -0.15
17 0.08
18 0.47
19 -0.14
2 -0.53
20 -0.18
21 0.28
22 0.03
23 -0.15
24 -0.15
25 -0.15
26 -0.15
27 0.08
3 -0.53
38 0.4
39 0.15
4 -0.36
40 0.45
41 0.45
42 0.15
43 0.15
47 0.15
48 0.15
49 0.15
5 -0.57
50 0.15
51 0.45
6 -0.53
7 0.28
9 0.14

> <PUBCHEM_PHARMACOPHORE_FEATURES>
10
1 1 acceptor
1 1 donor
1 2 donor
1 3 donor
1 4 acceptor
1 5 acceptor
1 6 donor
3 7 11 12 hydrophobe
6 10 13 14 15 16 17 rings
6 22 23 24 25 26 27 rings

> <PUBCHEM_SHAPE_FINGERPRINT>
10411042 1 17761769564441536106
10670039 82 17060351694804780721
10816530 23 18408044009572030219
11505856 67 17395314849947220262
1200032 147 18261394472810466664
12390115 104 18266746959490706206
12422481 6 17241033401315261316
12788726 201 17489597718869262601
13540713 5 18193534861591862338
13885169 86 18265900331211332981
13955234 65 18190180096400531491
14251764 75 18411421747461498473
14347332 77 8935006971167153419
14790565 3 18337389456462824116
14840074 17 18261113019019033221
14849402 71 18266178340296979378
15238133 3 17988914583498985712
15475509 35 16081638955996905938
15475509 8 18200883855904790974
1979834 28 17968103005696527245
20511986 3 17629456646215590435
20739085 24 18259985951033157220
21033648 144 18187355558924521551
21424621 283 18271240655382766000
21756936 100 18196932390927833070
23845131 108 18261671570931010115
283562 15 17251730756601665490
3178227 256 18188489069661540938
38570 142 18341624736592731820
397830 11 18040726874693754881
4058900 60 18410864260611207699
474 4 18412256216747232627
5104073 3 18114177557995295155
57724786 102 18340488872483185341
59682541 52 15984834709281717044
6034566 193 18262800812168759117
633830 44 18343299275421999318
636775 72 17693932295832437920
77188 2 17689153413911391990

> <PUBCHEM_SHAPE_MULTIPOLES>
520.43
16.09
4.96
1.35
19
3.36
-0.13
-21.02
2.35
-7.36
0.15
0.52
-0.13
-2.57

> <PUBCHEM_SHAPE_SELFOVERLAP>
1103.078

> <PUBCHEM_SHAPE_VOLUME>
292.1

> <RelativeEnergy>
0

> <StereoisomerIndex>
1

> <TautomerIndex>
4

> <LibDock Warning>
no hit found

> <ErrorText>
LibDock failed

$$$$
23251201
  SciTegic09112317153D

 37 39  0  0  0  0            999 V2000
   -4.3130    0.0250    0.6490 O   0  0  0  1  0  0
    0.3800    1.5760    0.1470 O   0  0  0  1  0  0
   -3.0190    4.2970    1.8390 O   0  0  0  1  0  0
   -2.4610   -1.6070   -0.3170 O   0  0  0  1  0  0
    5.9020   -2.7110   -1.4970 O   0  0  0  1  0  0
   -3.2570    0.9240    0.7260 C   0  0  0  1  0  0
   -3.6700    2.1220    1.2320 C   0  0  0  1  0  0
   -1.8770    0.5750    0.3030 C   0  0  0  1  0  0
   -0.9030    1.7130    0.4790 C   0  0  0  1  0  0
   -2.6970    3.2200    1.3950 C   0  0  0  1  0  0
   -1.2940    2.9180    0.9820 C   0  0  0  1  0  0
   -5.0010    2.0280    1.4930 C   0  0  0  1  0  0
   -1.5470   -0.6470   -0.1900 C   0  0  0  1  0  0
   -5.4220    0.7410    1.1390 C   0  0  0  1  0  0
   -0.1780   -0.9830   -0.6070 C   0  0  0  1  0  0
    2.0840   -1.8070   -0.1950 C   0  0  0  1  0  0
    0.7050   -1.4810    0.2770 C   0  0  0  1  0  0
    3.0120   -2.3810    0.6920 C   0  0  0  1  0  0
    2.4550   -1.5390   -1.5240 C   0  0  0  1  0  0
    0.6320    1.9400   -1.2010 C   0  0  0  1  0  0
    4.3110   -2.6880    0.2470 C   0  0  0  1  0  0
    3.7530   -1.8470   -1.9650 C   0  0  0  1  0  0
    4.6840   -2.4220   -1.0820 C   0  0  0  1  0  0
   -0.5560    3.6990    1.0860 H   0  0  0  1  0  0
   -5.6280    2.8090    1.9020 H   0  0  0  1  0  0
   -6.4260    0.3480    1.2250 H   0  0  0  1  0  0
    0.1950   -0.8570   -1.6120 H   0  0  0  1  0  0
    0.4980   -1.6690    1.3200 H   0  0  0  1  0  0
    2.7360   -2.5910    1.7150 H   0  0  0  1  0  0
    1.7480   -1.0990   -2.2110 H   0  0  0  1  0  0
    1.4280    1.3010   -1.5850 H   0  0  0  1  0  0
   -0.3130    1.9090   -1.7450 H   0  0  0  1  0  0
    0.9920    2.9680   -1.2170 H   0  0  0  1  0  0
    5.0190   -3.1300    0.9300 H   0  0  0  1  0  0
    4.0350   -1.6410   -2.9870 H   0  0  0  1  0  0
    6.1460   -2.5230   -2.4130 H   0  0  0  1  0  0
   -3.1890   -1.6550    0.3170 H   0  0  0  1  0  0
  1  6  1  0
  1 14  1  0
  2  9  1  0
  2 20  1  0
  3 10  2  0
  4 13  1  0
  4 37  1  0
  5 23  1  0
  5 36  1  0
  6  7  2  0
  6  8  1  0
  7 10  1  0
  7 12  1  0
  8  9  1  0
  8 13  2  0
  9 11  2  0
 10 11  1  0
 11 24  1  0
 12 14  2  0
 12 25  1  0
 13 15  1  0
 14 26  1  0
 15 17  2  0
 15 27  1  0
 16 17  1  0
 16 18  2  0
 16 19  1  0
 17 28  1  0
 18 21  1  0
 18 29  1  0
 19 22  2  0
 19 30  1  0
 20 31  1  0
 20 32  1  0
 20 33  1  0
 21 23  2  0
 21 34  1  0
 22 23  1  0
 22 35  1  0
M  END
> <Name>
23251201

> <AbsoluteEnergy>
106.829

> <ConfNumber>
1

> <Ionization pH>
8.49_PP

> <IonizationIndex>
1

> <NumberOfIonizations>
2

> <NumberOfStereoisomers>
1

> <NumberOfTautomers>
3

> <OBJECTID>
9223374480694509581

> <PUBCHEM_ATOM_DEF_STEREO_COUNT>
0

> <PUBCHEM_ATOM_UDEF_STEREO_COUNT>
0

> <PUBCHEM_BOND_DEF_STEREO_COUNT>
1

> <PUBCHEM_BOND_UDEF_STEREO_COUNT>
0

> <PUBCHEM_CACTVS_TAUTO_COUNT>
10

> <PUBCHEM_COMPONENT_COUNT>
1

> <PUBCHEM_COMPOUND_CID>
23251201

> <PUBCHEM_CONFORMER_DIVERSEORDER>
1
44
18
35
17
8
21
5
29
43
12
25
22
27
33
6
23
9
3
34
24
37
4
41
19
11
14
16
39
2
26
32
42
36
15
13
30
20
40
7
10
45
31
38
46
28

> <PUBCHEM_CONFORMER_ID>
0162C90100000001

> <PUBCHEM_CONFORMER_RMSD>
0.6

> <PUBCHEM_COORDINATE_TYPE>
2
5
10

> <PUBCHEM_EFFECTIVE_ROTOR_COUNT>
4

> <PUBCHEM_FEATURE_SELFOVERLAP>
40.7

> <PUBCHEM_HEAVY_ATOM_COUNT>
23

> <PUBCHEM_ISOTOPIC_ATOM_COUNT>
0

> <PUBCHEM_MMFF94_ENERGY>
72.239

> <PUBCHEM_MMFF94_PARTIAL_CHARGES>
33
1 -0.28
10 0.08
11 -0.15
12 -0.15
13 0.47
14 -0.01
15 -0.14
16 0.03
17 -0.18
18 -0.15
19 -0.15
2 -0.36
20 0.28
21 -0.15
22 -0.15
23 0.08
24 0.15
25 0.15
26 0.15
27 0.15
28 0.15
29 0.45
3 -0.53
30 0.15
31 0.15
35 0.15
36 0.15
37 0.45
4 -0.57
5 -0.53
6 0.14
8 0.09
9 0.08

> <PUBCHEM_PHARMACOPHORE_FEATURES>
8
1 1 acceptor
1 2 acceptor
1 3 donor
1 4 acceptor
1 5 donor
5 1 6 7 12 14 rings
6 16 18 19 21 22 23 rings
6 6 7 8 9 10 11 rings

> <PUBCHEM_SHAPE_FINGERPRINT>
10498660 4 17894623743398282037
10693767 8 17845663543133924566
11595378 159 14852155196836254301
12403259 415 18261117434381881289
12730499 353 18337398226617172659
12769317 202 18410008849149412160
13402501 40 18260547839755571125
13836976 161 17918274246721883550
14528608 73 18334849537811331535
14931854 50 18410299068738073204
15183329 4 18272370833272064585
15210252 30 17748832929492809604
15475509 35 13541910028378082638
15961568 22 17676490574638038973
16989378 47 16772135569586426214
17844677 252 18341899559182188649
20645477 70 18343306950401780639
21033648 29 18041560351151356049
21637258 2 15625671505670242494
221357 26 18412543189371791845
22224240 67 7997683156906197572
22289505 5 18409446951505286732
22393880 68 18200313345975297062
23557571 272 17822586009484251419
23559900 14 18413103974713885057
238 59 18342186604283154538
3009799 131 18413112784335568956
3060560 45 18273219711919602958
34797466 226 18410290303616650431
3545911 37 18334016112155333497
4072396 5 18409157810871757138
46194498 28 18413107238857362231
495365 180 18200588215555855832
5104073 3 17895189988002784505
5281201 14 18339925922513790303
5312625 73 18409450323624384787
53794403 172 17750804444215073317
59682541 52 18200016362573002037
59755656 215 18335139795241879573
6442390 28 17894910771371989747
7808743 9 17386295427162962564

> <PUBCHEM_SHAPE_MULTIPOLES>
443.98
13.09
2.9
1.17
18.68
0.17
0.07
-4
-5.06
-3.53
-0.22
-0.03
0.31
1.42

> <PUBCHEM_SHAPE_SELFOVERLAP>
979.28

> <PUBCHEM_SHAPE_VOLUME>
240.4

> <RelativeEnergy>
0

> <StereoisomerIndex>
1

> <TautomerIndex>
2

> <LibDock Warning>
no hit found

> <ErrorText>
LibDock failed

$$$$
23251201
  SciTegic09112317153D

 36 38  0  0  0  0            999 V2000
    2.3980    0.2620    0.2480 O   0  0  0  1  0  0
   -0.3730    2.5720   -3.0590 O   0  0  0  1  0  0
    3.0010    4.8400   -0.4950 O   0  5  0  1  0  0
   -0.0750   -0.4040   -2.8750 O   0  0  0  1  0  0
   -2.2610   -4.3820    4.1800 O   0  0  0  1  0  0
    1.9360    1.3320   -0.5010 C   0  0  0  1  0  0
    2.6220    2.4670   -0.1760 C   0  0  0  1  0  0
    0.9110    1.3120   -1.4700 C   0  0  0  1  0  0
    0.5910    2.5320   -2.1280 C   0  0  0  1  0  0
    2.3270    3.7000   -0.8100 C   0  0  0  1  0  0
    1.2990    3.7220   -1.7950 C   0  0  0  1  0  0
    3.5500    2.2140    0.7780 C   0  0  0  1  0  0
    0.1940    0.0590   -1.7910 C   0  0  0  1  0  0
    3.4230    0.8350    1.0550 C   0  0  0  1  0  0
   -0.2010   -0.6440   -0.5650 C   0  0  0  1  0  0
   -1.2010   -2.5110    0.6490 C   0  0  0  1  0  0
   -0.8180   -1.8370   -0.6260 C   0  0  0  1  0  0
   -1.8480   -3.7590    0.6190 C   0  0  0  1  0  0
   -0.9150   -1.9020    1.8840 C   0  0  0  1  0  0
   -0.0050    2.3360   -4.4090 C   0  0  0  1  0  0
   -2.2080   -4.3940    1.8200 C   0  0  0  1  0  0
   -1.2750   -2.5390    3.0820 C   0  0  0  1  0  0
   -1.9230   -3.7870    3.0540 C   0  0  0  1  0  0
    1.0560    4.6490   -2.2940 H   0  0  0  1  0  0
    4.2410    2.9110    1.2340 H   0  0  0  1  0  0
    4.0130    0.2820    1.7730 H   0  0  0  1  0  0
   -0.0310   -0.2640    0.4320 H   0  0  0  1  0  0
   -1.0650   -2.3570   -1.5380 H   0  0  0  1  0  0
   -2.0730   -4.2360   -0.3250 H   0  0  0  1  0  0
   -0.4170   -0.9420    1.9180 H   0  0  0  1  0  0
    0.9300    1.7760   -4.4160 H   0  0  0  1  0  0
   -0.8490    1.8680   -4.9170 H   0  0  0  1  0  0
    0.1800    3.2980   -4.8870 H   0  0  0  1  0  0
   -2.7060   -5.3530    1.7900 H   0  0  0  1  0  0
   -1.0520   -2.0660    4.0280 H   0  0  0  1  0  0
   -2.0580   -3.9540    5.0220 H   0  0  0  1  0  0
  1  6  1  0
  1 14  1  0
  2  9  1  0
  2 20  1  0
  3 10  1  0
  4 13  2  0
  5 23  1  0
  5 36  1  0
  6  7  1  0
  6  8  2  0
  7 10  2  0
  7 12  1  0
  8  9  1  0
  8 13  1  0
  9 11  2  0
 10 11  1  0
 11 24  1  0
 12 14  2  0
 12 25  1  0
 13 15  1  0
 14 26  1  0
 15 17  2  0
 15 27  1  0
 16 17  1  0
 16 18  2  0
 16 19  1  0
 17 28  1  0
 18 21  1  0
 18 29  1  0
 19 22  2  0
 19 30  1  0
 20 31  1  0
 20 32  1  0
 20 33  1  0
 21 23  2  0
 21 34  1  0
 22 23  1  0
 22 35  1  0
M  CHG  1   3  -1
M  END
> <Name>
23251201

> <AbsoluteEnergy>
126.181

> <ConfNumber>
1

> <Ionization pH>
8.49_DP

> <IonizationIndex>
2

> <NumberOfIonizations>
2

> <NumberOfStereoisomers>
1

> <NumberOfTautomers>
2

> <OBJECTID>
9223374489284444173

> <PUBCHEM_ATOM_DEF_STEREO_COUNT>
0

> <PUBCHEM_ATOM_UDEF_STEREO_COUNT>
0

> <PUBCHEM_BOND_DEF_STEREO_COUNT>
1

> <PUBCHEM_BOND_UDEF_STEREO_COUNT>
0

> <PUBCHEM_CACTVS_TAUTO_COUNT>
10

> <PUBCHEM_COMPONENT_COUNT>
1

> <PUBCHEM_COMPOUND_CID>
23251201

> <PUBCHEM_CONFORMER_DIVERSEORDER>
1
44
18
35
17
8
21
5
29
43
12
25
22
27
33
6
23
9
3
34
24
37
4
41
19
11
14
16
39
2
26
32
42
36
15
13
30
20
40
7
10
45
31
38
46
28

> <PUBCHEM_CONFORMER_ID>
0162C90100000001

> <PUBCHEM_CONFORMER_RMSD>
0.6

> <PUBCHEM_COORDINATE_TYPE>
2
5
10

> <PUBCHEM_EFFECTIVE_ROTOR_COUNT>
4

> <PUBCHEM_FEATURE_SELFOVERLAP>
40.7

> <PUBCHEM_HEAVY_ATOM_COUNT>
23

> <PUBCHEM_ISOTOPIC_ATOM_COUNT>
0

> <PUBCHEM_MMFF94_ENERGY>
72.239

> <PUBCHEM_MMFF94_PARTIAL_CHARGES>
33
1 -0.28
10 0.08
11 -0.15
12 -0.15
13 0.47
14 -0.01
15 -0.14
16 0.03
17 -0.18
18 -0.15
19 -0.15
2 -0.36
20 0.28
21 -0.15
22 -0.15
23 0.08
24 0.15
25 0.15
26 0.15
27 0.15
28 0.15
29 0.45
3 -0.53
30 0.15
31 0.15
35 0.15
36 0.15
37 0.45
4 -0.57
5 -0.53
6 0.14
8 0.09
9 0.08

> <PUBCHEM_PHARMACOPHORE_FEATURES>
8
1 1 acceptor
1 2 acceptor
1 3 donor
1 4 acceptor
1 5 donor
5 1 6 7 12 14 rings
6 16 18 19 21 22 23 rings
6 6 7 8 9 10 11 rings

> <PUBCHEM_SHAPE_FINGERPRINT>
10498660 4 17894623743398282037
10693767 8 17845663543133924566
11595378 159 14852155196836254301
12403259 415 18261117434381881289
12730499 353 18337398226617172659
12769317 202 18410008849149412160
13402501 40 18260547839755571125
13836976 161 17918274246721883550
14528608 73 18334849537811331535
14931854 50 18410299068738073204
15183329 4 18272370833272064585
15210252 30 17748832929492809604
15475509 35 13541910028378082638
15961568 22 17676490574638038973
16989378 47 16772135569586426214
17844677 252 18341899559182188649
20645477 70 18343306950401780639
21033648 29 18041560351151356049
21637258 2 15625671505670242494
221357 26 18412543189371791845
22224240 67 7997683156906197572
22289505 5 18409446951505286732
22393880 68 18200313345975297062
23557571 272 17822586009484251419
23559900 14 18413103974713885057
238 59 18342186604283154538
3009799 131 18413112784335568956
3060560 45 18273219711919602958
34797466 226 18410290303616650431
3545911 37 18334016112155333497
4072396 5 18409157810871757138
46194498 28 18413107238857362231
495365 180 18200588215555855832
5104073 3 17895189988002784505
5281201 14 18339925922513790303
5312625 73 18409450323624384787
53794403 172 17750804444215073317
59682541 52 18200016362573002037
59755656 215 18335139795241879573
6442390 28 17894910771371989747
7808743 9 17386295427162962564

> <PUBCHEM_SHAPE_MULTIPOLES>
443.98
13.09
2.9
1.17
18.68
0.17
0.07
-4
-5.06
-3.53
-0.22
-0.03
0.31
1.42

> <PUBCHEM_SHAPE_SELFOVERLAP>
979.28

> <PUBCHEM_SHAPE_VOLUME>
240.4

> <RelativeEnergy>
0

> <StereoisomerIndex>
1

> <TautomerIndex>
1

> <LibDock Warning>
no hit found

> <ErrorText>
LibDock failed

$$$$
23251203
  SciTegic09112317153D

 48 50  0  0  0  0            999 V2000
   -2.7820    0.0190   -0.0950 O   0  0  0  1  0  0
   -1.8390    4.6290   -0.2470 O   0  0  0  1  0  0
    1.7820    1.8310    0.2970 O   0  0  0  1  0  0
   -0.8430   -1.5120    0.1820 O   0  0  0  1  0  0
    7.2930   -3.1660    1.1580 O   0  0  0  1  0  0
   -4.1190    0.1810   -0.5790 C   0  0  0  1  0  0
   -4.7230    1.4420    0.0500 C   0  0  0  1  0  0
   -3.8600    2.6520   -0.3010 C   0  0  0  1  0  0
   -2.3830    2.3550   -0.1630 C   0  0  0  1  0  0
   -1.9350    1.0750   -0.0600 C   0  0  0  1  0  0
   -4.0760    0.2750   -2.1090 C   0  0  0  1  0  0
   -4.9120   -1.0620   -0.1680 C   0  0  0  1  0  0
   -0.4680    0.8050    0.1070 C   0  0  0  1  0  0
   -1.4430    3.4910   -0.1360 C   0  0  0  1  0  0
    0.4660    1.9750    0.1470 C   0  0  0  1  0  0
   -0.0100    3.2280    0.0300 C   0  0  0  1  0  0
   -0.0100   -0.4740    0.2180 C   0  0  0  1  0  0
    1.4130   -0.8070    0.3820 C   0  0  0  1  0  0
    2.5140    2.4210   -0.7680 C   0  0  0  1  0  0
    1.8040   -2.0800    0.5460 C   0  0  0  1  0  0
    3.2610   -2.3690    0.7090 C   0  0  0  1  0  0
    3.7750   -3.6240    0.3360 C   0  0  0  1  0  0
    4.1190   -1.3860    1.2330 C   0  0  0  1  0  0
    5.1480   -3.8930    0.4900 C   0  0  0  1  0  0
    5.4890   -1.6590    1.3850 C   0  0  0  1  0  0
    6.0080   -2.9110    1.0140 C   0  0  0  1  0  0
   -4.7570    1.3240    1.1360 H   0  0  0  1  0  0
   -5.7490    1.5950   -0.2810 H   0  0  0  1  0  0
   -4.1370    3.4950    0.3330 H   0  0  0  1  0  0
   -4.0590    2.9590   -1.3290 H   0  0  0  1  0  0
   -3.7380   -0.6550   -2.5640 H   0  0  0  1  0  0
   -3.3980    1.0660   -2.4280 H   0  0  0  1  0  0
   -5.0650    0.5030   -2.5100 H   0  0  0  1  0  0
   -4.4640   -1.9750   -0.5590 H   0  0  0  1  0  0
   -5.9360   -1.0060   -0.5390 H   0  0  0  1  0  0
   -4.9560   -1.1500    0.9180 H   0  0  0  1  0  0
    0.6760    4.0630    0.0570 H   0  0  0  1  0  0
    2.2080   -0.0740    0.3820 H   0  0  0  1  0  0
    3.5480    2.0830   -0.7000 H   0  0  0  1  0  0
    1.9950    2.2000   -1.7010 H   0  0  0  1  0  0
    2.5080    3.5020   -0.6300 H   0  0  0  1  0  0
    1.1410   -2.9330    0.5690 H   0  0  0  1  0  0
    3.1240   -4.3850   -0.0680 H   0  0  0  1  0  0
    3.7320   -0.4180    1.5200 H   0  0  0  1  0  0
    5.5380   -4.8570    0.2040 H   0  0  0  1  0  0
    6.1450   -0.8990    1.7880 H   0  0  0  1  0  0
    7.8720   -2.4820    1.5210 H   0  0  0  1  0  0
   -1.5480   -1.5760    0.8390 H   0  0  0  1  0  0
  1  6  1  0
  1 10  1  0
  2 14  2  0
  3 15  1  0
  3 19  1  0
  4 17  1  0
  4 48  1  0
  5 26  1  0
  5 47  1  0
  6  7  1  0
  6 11  1  0
  6 12  1  0
  7  8  1  0
  7 27  1  0
  7 28  1  0
  8  9  1  0
  8 29  1  0
  8 30  1  0
  9 10  2  0
  9 14  1  0
 10 13  1  0
 11 31  1  0
 11 32  1  0
 11 33  1  0
 12 34  1  0
 12 35  1  0
 12 36  1  0
 13 15  1  0
 13 17  2  0
 14 16  1  0
 15 16  2  0
 16 37  1  0
 17 18  1  0
 18 20  2  0
 18 38  1  0
 19 39  1  0
 19 40  1  0
 19 41  1  0
 20 21  1  0
 20 42  1  0
 21 22  2  0
 21 23  1  0
 22 24  1  0
 22 43  1  0
 23 25  2  0
 23 44  1  0
 24 26  2  0
 24 45  1  0
 25 26  1  0
 25 46  1  0
M  END
> <Name>
23251203

> <AbsoluteEnergy>
58.0338

> <ConfNumber>
1

> <Ionization pH>
7.5

> <IonizationIndex>
1

> <NumberOfIonizations>
1

> <NumberOfStereoisomers>
1

> <NumberOfTautomers>
3

> <OBJECTID>
9223374502169346061

> <PUBCHEM_ATOM_DEF_STEREO_COUNT>
0

> <PUBCHEM_ATOM_UDEF_STEREO_COUNT>
0

> <PUBCHEM_BOND_DEF_STEREO_COUNT>
1

> <PUBCHEM_BOND_UDEF_STEREO_COUNT>
0

> <PUBCHEM_CACTVS_TAUTO_COUNT>
10

> <PUBCHEM_COMPONENT_COUNT>
1

> <PUBCHEM_COMPOUND_CID>
23251203

> <PUBCHEM_CONFORMER_DIVERSEORDER>
1
9
8
18
19
7
17
2
11
12
3
13
16
10
15
5
14
21
20
6
4

> <PUBCHEM_CONFORMER_ID>
0162C90300000001

> <PUBCHEM_CONFORMER_RMSD>
0.8

> <PUBCHEM_COORDINATE_TYPE>
2
5
10

> <PUBCHEM_EFFECTIVE_ROTOR_COUNT>
4.8

> <PUBCHEM_FEATURE_SELFOVERLAP>
45.701

> <PUBCHEM_HEAVY_ATOM_COUNT>
26

> <PUBCHEM_ISOTOPIC_ATOM_COUNT>
0

> <PUBCHEM_MMFF94_ENERGY>
95.4834

> <PUBCHEM_MMFF94_PARTIAL_CHARGES>
32
1 -0.36
10 0.08
13 0.09
14 0.08
15 0.08
16 -0.15
17 0.47
18 -0.14
19 0.28
2 -0.53
20 -0.18
21 0.03
22 -0.15
23 -0.15
24 -0.15
25 -0.15
26 0.08
3 -0.36
37 0.15
38 0.45
39 0.15
4 -0.57
43 0.15
44 0.15
45 0.15
46 0.15
47 0.15
48 0.45
5 -0.53
6 0.28
8 0.14
9 -0.14

> <PUBCHEM_PHARMACOPHORE_FEATURES>
9
1 1 acceptor
1 2 donor
1 3 acceptor
1 4 acceptor
1 5 donor
3 6 11 12 hydrophobe
6 1 6 7 8 9 10 rings
6 21 22 23 24 25 26 rings
6 9 10 13 14 15 16 rings

> <PUBCHEM_SHAPE_FINGERPRINT>
10693767 8 17987805103384881454
11595378 159 14562796726228629861
12403259 415 18187088399078965985
12730499 353 18336272322631763987
12769317 202 18408036325378826779
13402501 40 18259703423536595629
13911987 19 18267047062352535702
14251757 17 18261671480862978765
14681490 219 18413106139415098221
14931854 50 18335989657627203372
15081414 286 18336274538771974697
15210252 30 17749398065605514716
16988056 13 18409444825449938189
17093844 170 18261670467288009940
17492 54 18188790400287482196
17844677 252 18412831261987357723
17909252 39 18200031733738604088
18608769 82 17896050987143236955
21033648 29 17967533519203697281
21285901 2 17968657107880019429
21792961 116 18115046133938131394
221357 26 18411135810330252533
22289505 5 18408882910651199789
22393880 68 18261388983868525251
23227448 37 18265050417750365839
23559900 14 18409726279541564369
238 59 18340777055903407034
3060560 45 18343304781918147470
340366 18 18060138777355606438
46194498 28 18114187496628804013
495365 180 18270676584094227160
508706 21 17896037827136536547
5312625 73 18336547218145799435
53794403 172 17750803344866800437
574716 61 17987788739505839301
59755656 215 18260546732054630013
6443956 14 18412268350082565276
7471813 234 17704075087953577520

> <PUBCHEM_SHAPE_MULTIPOLES>
505.72
11.95
4.04
1.26
20.8
0.31
-0.16
1.45
4.96
-4.54
-0.18
0.11
0.04
1.43

> <PUBCHEM_SHAPE_SELFOVERLAP>
1095.636

> <PUBCHEM_SHAPE_VOLUME>
276.5

> <RelativeEnergy>
0

> <StereoisomerIndex>
1

> <TautomerIndex>
2

> <LibDock Warning>
no hit found

> <ErrorText>
LibDock failed

$$$$
23251204
  SciTegic09112317153D

 49 51  0  0  0  0            999 V2000
   -2.8070   -0.4120    0.0810 O   0  0  0  1  0  0
   -4.8520    1.0630   -1.2800 O   0  0  0  1  0  0
   -1.9870    4.1720    0.8140 O   0  0  0  1  0  0
    1.6100    1.6390   -0.5630 O   0  0  0  1  0  0
   -0.7750   -1.8530   -0.0880 O   0  0  0  1  0  0
    7.7260   -2.1180   -0.2160 O   0  0  0  1  0  0
   -4.1580   -0.3560    0.5600 C   0  0  0  1  0  0
   -4.8050    0.9750    0.1350 C   0  0  1  1  0  0
   -3.9600    2.1320    0.6860 C   0  0  0  1  0  0
   -2.4800    1.9150    0.4330 C   0  0  0  1  0  0
   -1.9940    0.6720    0.1610 C   0  0  0  1  0  0
   -4.1290   -0.4880    2.0900 C   0  0  0  1  0  0
   -4.9060   -1.5680   -0.0060 C   0  0  0  1  0  0
   -0.5240    0.4810   -0.0740 C   0  0  0  1  0  0
   -1.5800    3.0840    0.4750 C   0  0  0  1  0  0
    0.3350    1.6970   -0.1900 C   0  0  0  1  0  0
   -0.1770    2.9130    0.0850 C   0  0  0  1  0  0
    0.0010   -0.7720   -0.1680 C   0  0  0  1  0  0
    1.4390   -1.0270   -0.3570 C   0  0  0  1  0  0
    1.9050    2.5370   -1.6220 C   0  0  0  1  0  0
    2.2590   -1.1490    0.7000 C   0  0  0  1  0  0
    3.7090   -1.4050    0.4580 C   0  0  0  1  0  0
    4.5900   -1.5430    1.5440 C   0  0  0  1  0  0
    4.1950   -1.5100   -0.8580 C   0  0  0  1  0  0
    5.9570   -1.7840    1.3130 C   0  0  0  1  0  0
    5.5610   -1.7540   -1.0860 C   0  0  0  1  0  0
    6.4450   -1.8920   -0.0010 C   0  0  0  1  0  0
   -5.8330    1.0500    0.4940 H   0  0  0  1  0  0
   -4.2920    3.0830    0.2690 H   0  0  0  1  0  0
   -4.1160    2.2060    1.7620 H   0  0  0  1  0  0
   -3.7470   -1.4580    2.4060 H   0  0  0  1  0  0
   -5.1310   -0.3710    2.5060 H   0  0  0  1  0  0
   -3.4920    0.2790    2.5320 H   0  0  0  1  0  0
   -4.5080   -2.5070    0.3810 H   0  0  0  1  0  0
   -4.8270   -1.5960   -1.0930 H   0  0  0  1  0  0
   -5.9630   -1.5240    0.2520 H   0  0  0  1  0  0
    0.4530    3.7850    0.0150 H   0  0  0  1  0  0
    1.9120   -1.1270   -1.3240 H   0  0  0  1  0  0
    2.5990    2.0450   -2.3060 H   0  0  0  1  0  0
    0.9650    2.8770   -2.0540 H   0  0  0  1  0  0
    2.4140    3.4070   -1.2020 H   0  0  0  1  0  0
    1.9490   -1.0740    1.7330 H   0  0  0  1  0  0
    4.2280   -1.4630    2.5590 H   0  0  0  1  0  0
    3.5250   -1.4070   -1.6990 H   0  0  0  1  0  0
    6.6300   -1.8890    2.1510 H   0  0  0  1  0  0
    5.9290   -1.8340   -2.0960 H   0  0  0  1  0  0
   -5.5650    0.4780   -1.5780 H   0  0  0  1  0  0
    8.0470   -2.1890   -1.1220 H   0  0  0  1  0  0
   -1.2180   -2.0560    0.7460 H   0  0  0  1  0  0
  1  7  1  0
  1 11  1  0
  2  8  1  0
  2 47  1  0
  3 15  2  0
  4 16  1  0
  4 20  1  0
  5 18  1  0
  5 49  1  0
  6 27  1  0
  6 48  1  0
  7  8  1  0
  7 12  1  0
  7 13  1  0
  8  9  1  0
  8 28  1  0
  9 10  1  0
  9 29  1  0
  9 30  1  0
 10 11  2  0
 10 15  1  0
 11 14  1  0
 12 31  1  0
 12 32  1  0
 12 33  1  0
 13 34  1  0
 13 35  1  0
 13 36  1  0
 14 16  1  0
 14 18  2  0
 15 17  1  0
 16 17  2  0
 17 37  1  0
 18 19  1  0
 19 21  2  0
 19 38  1  0
 20 39  1  0
 20 40  1  0
 20 41  1  0
 21 22  1  0
 21 42  1  0
 22 23  2  0
 22 24  1  0
 23 25  1  0
 23 43  1  0
 24 26  2  0
 24 44  1  0
 25 27  2  0
 25 45  1  0
 26 27  1  0
 26 46  1  0
M  END
> <Name>
23251204

> <AbsoluteEnergy>
53.2372

> <ConfNumber>
1

> <Ionization pH>
7.5

> <IonizationIndex>
1

> <NumberOfIonizations>
1

> <NumberOfStereoisomers>
1

> <NumberOfTautomers>
3

> <OBJECTID>
9223374515054247949

> <PUBCHEM_ATOM_DEF_STEREO_COUNT>
0

> <PUBCHEM_ATOM_UDEF_STEREO_COUNT>
1

> <PUBCHEM_BOND_DEF_STEREO_COUNT>
1

> <PUBCHEM_BOND_UDEF_STEREO_COUNT>
0

> <PUBCHEM_CACTVS_TAUTO_COUNT>
10

> <PUBCHEM_COMPONENT_COUNT>
1

> <PUBCHEM_COMPOUND_CID>
23251204

> <PUBCHEM_CONFORMER_DIVERSEORDER>
1
22
17
28
12
26
31
9
23
2
27
20
18
29
10
30
3
8
4
19
25
15
11
24
35
21
33
13
34
32
7
6
14
5
16

> <PUBCHEM_CONFORMER_ID>
0162C90400000001

> <PUBCHEM_CONFORMER_RMSD>
0.8

> <PUBCHEM_COORDINATE_TYPE>
2
5
10

> <PUBCHEM_EFFECTIVE_ROTOR_COUNT>
4.8

> <PUBCHEM_FEATURE_SELFOVERLAP>
55.852

> <PUBCHEM_HEAVY_ATOM_COUNT>
27

> <PUBCHEM_ISOTOPIC_ATOM_COUNT>
0

> <PUBCHEM_MMFF94_ENERGY>
100.4396

> <PUBCHEM_MMFF94_PARTIAL_CHARGES>
35
1 -0.36
10 -0.14
11 0.08
14 0.09
15 0.08
16 0.08
17 -0.15
18 0.47
19 -0.14
2 -0.68
20 0.28
21 -0.18
22 0.03
23 -0.15
24 -0.15
25 -0.15
26 -0.15
27 0.08
3 -0.53
37 0.4
38 0.15
39 0.45
4 -0.36
40 0.15
44 0.15
45 0.15
46 0.15
47 0.15
48 0.15
49 0.45
5 -0.57
6 -0.53
7 0.28
8 0.28
9 0.14

> <PUBCHEM_PHARMACOPHORE_FEATURES>
11
1 1 acceptor
1 2 acceptor
1 2 donor
1 3 donor
1 4 acceptor
1 5 acceptor
1 6 donor
3 7 12 13 hydrophobe
6 1 7 8 9 10 11 rings
6 10 11 14 15 16 17 rings
6 22 23 24 25 26 27 rings

> <PUBCHEM_SHAPE_FINGERPRINT>
10670039 82 18408888421785252652
10871710 139 18335979771129543117
10906281 52 18265045844168929479
10937287 8 17622734119727088864
11049842 53 17982720888561415834
11578080 2 16270549360227322941
12107183 9 17902504897065465386
12788726 201 18413100650145681179
13583140 156 14996286928762312544
13911987 19 18336249190365221519
13994607 96 17895209799805835377
14251757 5 18339078297490488758
14713325 29 18409738369495487387
14790565 3 18053949450742466145
14840074 17 17895766096924156149
14910302 57 17988647376604534334
14931854 50 18335413560799903596
14955137 171 18267309918693880483
15021287 119 17461985576187156274
15064981 113 18270391686598560750
15064981 194 18042985330831204847
15163728 17 18199197195543924510
15183329 4 18186803548775321366
15297060 5 18200878361697049233
15575132 122 18041838394370193069
16994733 274 15502917655363724527
17492 54 18188474827449234109
17818456 19 18194386811378180426
19958102 18 18339640032511634166
20101258 96 17902803186079958715
20511986 3 17967798462856560260
20642791 239 17968365857974512733
20642791 35 18338506568792557385
20775438 99 16616688024591281887
21304303 64 17458340802531007333
23366157 5 17759518872739728971
23557571 272 18202288004724079156
23559900 14 18267577095302436832
255183 451 17694497453029583047
4258327 124 15937273229525648270
469060 322 16950862370055159097
474 4 17821726092306324450
484989 97 18118392081382490175
508706 21 18271823297755900182
531348 171 18411990144214478318
5364581 5 7925046094835060806
6034566 193 18122626042477908961
6700243 42 17626142915453503918
70251023 43 17473818902250841867
9981440 41 18337110072845419867

> <PUBCHEM_SHAPE_MULTIPOLES>
520.43
11.94
4.14
1.31
22.12
0.41
-0.16
-2.21
4.3
-4.78
-0.17
-0.07
-0.12
-1.73

> <PUBCHEM_SHAPE_SELFOVERLAP>
1128.614

> <PUBCHEM_SHAPE_VOLUME>
284.2

> <RelativeEnergy>
0

> <StereoisomerIndex>
1

> <TautomerIndex>
2

> <LibDock Warning>
no hit found

> <ErrorText>
LibDock failed

$$$$
24721373
  SciTegic09112317153D

 95100  0  0  0  0            999 V2000
   -3.9620    0.8010   -0.4330 O   0  0  0  1  0  0
    4.2440   -1.0500    0.2560 O   0  0  0  1  0  0
    3.7540   -2.6070   -1.2790 O   0  0  0  1  0  0
   -4.6980    2.7710    0.6610 O   0  0  0  1  0  0
   -6.7920    2.8080   -1.4850 O   0  0  0  1  0  0
    3.3140   -1.2990    2.3590 O   0  0  0  1  0  0
   -6.7060   -0.2330    0.4700 O   0  0  0  1  0  0
   -7.5680    3.1520    1.4030 O   0  0  0  1  0  0
    5.5830   -3.5540    0.6040 O   0  0  0  1  0  0
   -3.2460    1.4080    2.5260 O   0  0  0  1  0  0
    5.9380   -4.3280    3.3940 O   0  0  0  1  0  0
    3.5470   -3.8260    4.9760 O   0  0  0  1  0  0
    1.0520   -0.6370    3.8950 O   0  0  0  1  0  0
   -0.6590   -0.1660   -1.6090 C   0  0  2  1  0  0
    0.1290    1.1900   -1.6020 C   0  0  2  1  0  0
    1.6480    1.0110   -1.3200 C   0  0  1  1  0  0
    2.2600   -0.0340   -2.2980 C   0  0  2  1  0  0
   -1.7530   -0.1920   -0.5170 C   0  0  0  1  0  0
    0.2270   -1.4170   -1.5150 C   0  0  0  1  0  0
   -2.6840    0.9180   -1.0310 C   0  0  2  1  0  0
   -0.5290    2.2340   -0.6590 C   0  0  0  1  0  0
   -1.5480   -0.2390   -2.8690 C   0  0  0  1  0  0
    1.3850   -1.2960   -2.5140 C   0  0  0  1  0  0
    3.7610   -0.3420   -1.9890 C   0  0  2  1  0  0
    2.3920    2.3620   -1.5200 C   0  0  0  1  0  0
   -2.0670    2.3020   -0.7450 C   0  0  0  1  0  0
   -2.7200    0.6180   -2.5060 C   0  0  0  1  0  0
    1.8510    0.5550    0.1360 C   0  0  0  1  0  0
    4.4930    0.9150   -1.4480 C   0  0  0  1  0  0
    3.8640    2.2190   -1.9520 C   0  0  0  1  0  0
    4.4460   -0.8260   -3.2730 C   0  0  0  1  0  0
    3.9190   -1.4490   -0.9710 C   0  0  0  1  0  0
   -3.6500    1.0520   -3.3760 C   0  0  0  1  0  0
   -4.7320    1.9830   -0.5330 C   0  0  2  1  0  0
   -6.1870    1.6420   -0.9530 C   0  0  1  1  0  0
   -7.0560    1.1150    0.2120 C   0  0  2  1  0  0
    3.8690   -1.9930    1.2500 C   0  0  2  1  0  0
   -5.3640    2.2440    1.8110 C   0  0  1  1  0  0
   -6.8530    1.9330    1.5080 C   0  0  1  1  0  0
    5.1040   -2.8010    1.7040 C   0  0  1  1  0  0
   -4.5950    1.0340    2.3610 C   0  0  0  1  0  0
    4.7520   -3.7420    2.8760 C   0  0  2  1  0  0
    2.8510   -2.1270    3.4190 C   0  0  1  1  0  0
    4.0360   -2.9420    3.9860 C   0  0  1  1  0  0
    2.2120   -1.2040    4.4610 C   0  0  0  1  0  0
    0.0650    1.6160   -2.6050 H   0  0  0  1  0  0
    2.2530    0.4650   -3.2680 H   0  0  0  1  0  0
   -2.2490   -1.1570   -0.4920 H   0  0  0  1  0  0
   -1.3700   -0.0070    0.4760 H   0  0  0  1  0  0
   -0.3530   -2.3200   -1.7210 H   0  0  0  1  0  0
    0.6150   -1.5450   -0.5060 H   0  0  0  1  0  0
   -0.2680    1.9940    0.3720 H   0  0  0  1  0  0
   -0.1130    3.2270   -0.8370 H   0  0  0  1  0  0
   -1.8950   -1.2470   -3.0630 H   0  0  0  1  0  0
   -1.0550    0.1160   -3.7630 H   0  0  0  1  0  0
    0.9680   -1.2710   -3.5200 H   0  0  0  1  0  0
    1.9800   -2.2090   -2.4890 H   0  0  0  1  0  0
    2.3350    2.9500   -0.6040 H   0  0  0  1  0  0
    1.8880    2.9650   -2.2780 H   0  0  0  1  0  0
   -2.3700    3.0130   -1.5140 H   0  0  0  1  0  0
   -2.4380    2.7100    0.1970 H   0  0  0  1  0  0
    2.6400    1.1330    0.6160 H   0  0  0  1  0  0
    0.9280    0.6720    0.7070 H   0  0  0  1  0  0
    2.1370   -0.4970    0.1750 H   0  0  0  1  0  0
    4.4670    0.9400   -0.3560 H   0  0  0  1  0  0
    5.5510    0.8840   -1.7080 H   0  0  0  1  0  0
    4.4400    3.0770   -1.5990 H   0  0  0  1  0  0
    3.9300    2.2390   -3.0400 H   0  0  0  1  0  0
    4.4330   -0.0630   -4.0520 H   0  0  0  1  0  0
    3.9470   -1.7120   -3.6670 H   0  0  0  1  0  0
    5.4860   -1.0880   -3.0800 H   0  0  0  1  0  0
   -3.6730    0.8780   -4.4420 H   0  0  0  1  0  0
   -4.4510    1.6340   -2.9470 H   0  0  0  1  0  0
   -4.2440    2.5710   -1.3100 H   0  0  0  1  0  0
   -6.1860    0.9290   -1.7810 H   0  0  0  1  0  0
   -8.1110    1.0850   -0.0680 H   0  0  0  1  0  0
    3.0980   -2.6390    0.8270 H   0  0  0  1  0  0
   -5.3020    3.0200    2.5750 H   0  0  0  1  0  0
   -7.2990    1.4170    2.3590 H   0  0  0  1  0  0
    5.8980   -2.1100    1.9980 H   0  0  0  1  0  0
   -4.6340    0.2010    1.6570 H   0  0  0  1  0  0
   -4.9880    0.7390    3.3340 H   0  0  0  1  0  0
    4.1070   -4.5490    2.5240 H   0  0  0  1  0  0
    2.0890   -2.7920    3.0090 H   0  0  0  1  0  0
    4.7400   -2.2640    4.4740 H   0  0  0  1  0  0
    2.8890   -0.3950    4.7260 H   0  0  0  1  0  0
    1.9150   -1.7690    5.3460 H   0  0  0  1  0  0
   -6.3410    3.0080   -2.3180 H   0  0  0  1  0  0
   -7.3690   -0.5910    1.0820 H   0  0  0  1  0  0
   -7.5740    3.5590    2.2840 H   0  0  0  1  0  0
    6.2710   -3.0260    0.1660 H   0  0  0  1  0  0
   -2.7770    0.6360    2.8740 H   0  0  0  1  0  0
    5.6690   -5.0700    3.9580 H   0  0  0  1  0  0
    3.9540   -3.5690    5.8170 H   0  0  0  1  0  0
    0.6590   -0.0580    4.5670 H   0  0  0  1  0  0
  1 20  1  0
  1 34  1  0
  2 32  1  0
  2 37  1  0
  3 32  2  0
  4 34  1  0
  4 38  1  0
  5 35  1  0
  5 88  1  0
  6 37  1  0
  6 43  1  0
  7 36  1  0
  7 89  1  0
  8 39  1  0
  8 90  1  0
  9 40  1  0
  9 91  1  0
 10 41  1  0
 10 92  1  0
 11 42  1  0
 11 93  1  0
 12 44  1  0
 12 94  1  0
 13 45  1  0
 13 95  1  0
 14 15  1  0
 14 18  1  0
 14 19  1  0
 14 22  1  0
 15 16  1  0
 15 21  1  0
 15 46  1  0
 16 17  1  0
 16 25  1  0
 16 28  1  0
 17 23  1  0
 17 24  1  0
 17 47  1  0
 18 20  1  0
 18 48  1  0
 18 49  1  0
 19 23  1  0
 19 50  1  0
 19 51  1  0
 20 26  1  0
 20 27  1  0
 21 26  1  0
 21 52  1  0
 21 53  1  0
 22 27  1  0
 22 54  1  0
 22 55  1  0
 23 56  1  0
 23 57  1  0
 24 29  1  0
 24 31  1  0
 24 32  1  0
 25 30  1  0
 25 58  1  0
 25 59  1  0
 26 60  1  0
 26 61  1  0
 27 33  2  0
 28 62  1  0
 28 63  1  0
 28 64  1  0
 29 30  1  0
 29 65  1  0
 29 66  1  0
 30 67  1  0
 30 68  1  0
 31 69  1  0
 31 70  1  0
 31 71  1  0
 33 72  1  0
 33 73  1  0
 34 35  1  0
 34 74  1  0
 35 36  1  0
 35 75  1  0
 36 39  1  0
 36 76  1  0
 37 40  1  0
 37 77  1  0
 38 39  1  0
 38 41  1  0
 38 78  1  0
 39 79  1  0
 40 42  1  0
 40 80  1  0
 41 81  1  0
 41 82  1  0
 42 44  1  0
 42 83  1  0
 43 44  1  0
 43 45  1  0
 43 84  1  0
 44 85  1  0
 45 86  1  0
 45 87  1  0
M  END
> <Name>
24721373

> <AbsoluteEnergy>
72.7644

> <ConfNumber>
1

> <IonizationIndex>
1

> <NumberOfIonizations>
1

> <NumberOfStereoisomers>
1

> <NumberOfTautomers>
1

> <OBJECTID>
9223374523644182541

> <PUBCHEM_ATOM_DEF_STEREO_COUNT>
16

> <PUBCHEM_ATOM_UDEF_STEREO_COUNT>
0

> <PUBCHEM_BOND_DEF_STEREO_COUNT>
0

> <PUBCHEM_BOND_UDEF_STEREO_COUNT>
0

> <PUBCHEM_CACTVS_TAUTO_COUNT>
1

> <PUBCHEM_COMPONENT_COUNT>
1

> <PUBCHEM_COMPOUND_CID>
24721373

> <PUBCHEM_CONFORMER_DIVERSEORDER>
1
76
87
20
32
79
25
72
24
68
42
61
14
64
73
34
54
18
60
36
12
74
19
88
80
62
7
78
56
38
6
67
29
45
70
53
44
52
82
50
37
40
69
39
31
47
57
5
75
27
8
83
86
48
35
10
23
15
33
30
66
46
11
2
59
22
63
81
49
3
17
65
71
41
13
84
26
85
21
9
51
77
58
55
43
4
28
16

> <PUBCHEM_CONFORMER_ID>
017937DD00000001

> <PUBCHEM_CONFORMER_RMSD>
1.2

> <PUBCHEM_COORDINATE_TYPE>
2
5
10

> <PUBCHEM_EFFECTIVE_ROTOR_COUNT>
11.4

> <PUBCHEM_FEATURE_SELFOVERLAP>
127.009

> <PUBCHEM_HEAVY_ATOM_COUNT>
45

> <PUBCHEM_ISOTOPIC_ATOM_COUNT>
0

> <PUBCHEM_MMFF94_ENERGY>
173.2642

> <PUBCHEM_MMFF94_PARTIAL_CHARGES>
41
1 -0.56
10 -0.68
11 -0.68
12 -0.68
13 -0.68
2 -0.43
20 0.42
22 0.14
24 0.06
27 -0.28
3 -0.57
32 0.66
33 -0.3
34 0.56
35 0.28
36 0.28
37 0.56
38 0.28
39 0.28
4 -0.56
40 0.28
41 0.28
42 0.28
43 0.28
44 0.28
45 0.28
5 -0.68
6 -0.56
7 -0.68
72 0.15
73 0.15
8 -0.68
81 0.4
85 0.4
88 0.4
89 0.4
9 -0.68
92 0.4
93 0.4
94 0.4
95 0.4

> <PUBCHEM_PHARMACOPHORE_FEATURES>
25
1 1 acceptor
1 10 acceptor
1 10 donor
1 11 acceptor
1 11 donor
1 12 acceptor
1 12 donor
1 13 acceptor
1 13 donor
1 3 acceptor
1 4 acceptor
1 5 acceptor
1 5 donor
1 6 acceptor
1 7 acceptor
1 7 donor
1 8 acceptor
1 8 donor
1 9 acceptor
1 9 donor
6 14 15 16 17 19 23 rings
6 16 17 24 25 29 30 rings
6 4 34 35 36 38 39 rings
6 6 37 40 42 43 44 rings
8 14 15 18 20 21 22 26 27 rings

> <PUBCHEM_SHAPE_FINGERPRINT>
10439779 11 18336825269500896858
10673678 19 18131351929542170919
11456790 92 18042687208931111402
11513181 2 18201159970366606502
12422481 6 18118103996139133712
12786520 15 16660352714435717956
12925494 130 18335985362870689035
1361 2 18335424504503511969
14295345 954 18342459244876016914
14725015 67 18189611648983312628
15001296 14 18335416881115857409
15082195 135 17917152701901491438
15320291 9 18265049317796081021
15320467 1 18196937669126622345
15968369 153 18268438008912497247
16112460 7 18408605833668434628
19053607 189 18196644306128972744
20715895 44 18343581811345243714
20764821 26 16899891484866680832
21716022 299 14618549524641390855
22122407 14 18408891724161734683
23398203 216 18264510505948598049
2838139 119 18342174436794234007
3493558 16 18412268354049971686
4144715 1 18189345730774469290
508180 173 18265352620307799418
5109719 28 18337685105469772377
5223283 242 17627252064756198591
53794403 172 18409735062095933749
5776283 40 18339376201476391908
5951187 136 18341335504815900766
6036956 94 17542505385047502821
6086070 43 18334585603133918618
9961470 85 18409730690104290305

> <PUBCHEM_SHAPE_MULTIPOLES>
849.78
15.45
7.32
1.88
20.87
5.29
0.19
12.34
-0.71
-4.32
-1.2
-1.29
-0.39
0.28

> <PUBCHEM_SHAPE_SELFOVERLAP>
1817.854

> <PUBCHEM_SHAPE_VOLUME>
463.1

> <RelativeEnergy>
0

> <StereoisomerIndex>
1

> <TautomerIndex>
1

> <LibDock Warning>
no hit found

> <ErrorText>
LibDock failed

$$$$
25001841
  SciTegic09112317153D

 71 73  0  0  0  0            999 V2000
    2.4910   -2.0550    1.6290 O   0  0  0  1  0  0
   -3.2420   -0.7310    0.5000 O   0  0  0  1  0  0
    3.7140    1.0520    0.0900 O   0  0  0  1  0  0
   -1.3630    2.3180    1.4670 O   0  0  0  1  0  0
    5.7260   -0.7030    1.0180 O   0  0  0  1  0  0
   -3.2590    2.0280    3.4210 O   0  0  0  1  0  0
    3.6890   -0.7830    4.0040 O   0  0  0  1  0  0
   -5.9230    0.8700    2.4460 O   0  0  0  1  0  0
    0.4030   -0.5640    2.0660 O   0  0  0  1  0  0
   -2.2500    0.0190   -1.8010 O   0  0  0  1  0  0
    2.3350   -1.0740   -2.2150 O   0  0  0  1  0  0
    2.8360   -4.7350    2.6000 O   0  0  0  1  0  0
   -5.6070   -0.3020   -1.3490 O   0  0  0  1  0  0
    0.0550   -1.5250   -4.1900 O   0  0  0  1  0  0
    2.7180   -1.1320    0.5700 C   0  0  2  1  0  0
   -2.1420    0.0270    1.0110 C   0  0  2  1  0  0
    3.4300    0.1290    1.1310 C   0  0  1  1  0  0
   -2.4960    1.5360    1.1120 C   0  0  1  1  0  0
    4.7240   -0.2250    1.9050 C   0  0  1  1  0  0
   -3.6860    1.7610    2.0940 C   0  0  1  1  0  0
    4.4360   -1.3360    2.9340 C   0  0  2  1  0  0
   -4.5910    0.5020    2.1360 C   0  0  2  1  0  0
    3.6630   -2.5200    2.2960 C   0  0  1  1  0  0
   -4.5620   -0.2670    0.7970 C   0  0  1  1  0  0
    1.4050   -0.8270   -0.0590 C   0  0  0  1  0  0
   -0.9570   -0.2640    0.1540 C   0  0  0  1  0  0
    0.2870   -0.5520    0.7510 C   0  0  0  1  0  0
   -1.0820   -0.2510   -1.2480 C   0  0  0  1  0  0
    1.2830   -0.8150   -1.4620 C   0  0  0  1  0  0
    0.0380   -0.5280   -2.0550 C   0  0  0  1  0  0
    3.2290   -3.5840    3.3100 C   0  0  0  1  0  0
   -5.0390    0.5710   -0.3980 C   0  0  0  1  0  0
   -0.0940   -0.5140   -3.5450 C   0  0  0  1  0  0
   -0.4160    0.7940   -4.2150 C   0  0  0  1  0  0
    0.6160    1.8800   -3.9020 C   0  0  0  1  0  0
    0.8130    2.8580   -5.0610 C   0  0  0  1  0  0
    0.3420    2.5860   -2.5740 C   0  0  0  1  0  0
    3.3420   -1.6280   -0.1740 H   0  0  0  1  0  0
   -1.9350   -0.3540    2.0130 H   0  0  0  1  0  0
    2.7560    0.6500    1.8140 H   0  0  0  1  0  0
   -2.7880    1.8930    0.1230 H   0  0  0  1  0  0
    5.1380    0.6590    2.3900 H   0  0  0  1  0  0
   -4.2410    2.6390    1.7600 H   0  0  0  1  0  0
    5.3660   -1.6980    3.3760 H   0  0  0  1  0  0
   -4.2710   -0.1870    2.9220 H   0  0  0  1  0  0
    4.2910   -3.0030    1.5460 H   0  0  0  1  0  0
   -5.1900   -1.1570    0.8590 H   0  0  0  1  0  0
    2.3760   -3.2380    3.8920 H   0  0  0  1  0  0
    4.0600   -3.8550    3.9630 H   0  0  0  1  0  0
   -4.2010    1.0850   -0.8680 H   0  0  0  1  0  0
   -5.8070    1.2820   -0.0890 H   0  0  0  1  0  0
   -0.3990    0.6690   -5.2980 H   0  0  0  1  0  0
   -1.4160    1.1210   -3.9320 H   0  0  0  1  0  0
    1.5650    1.4360   -3.6060 H   0  0  0  1  0  0
   -0.0870    3.4400   -5.2590 H   0  0  0  1  0  0
    1.0730    2.3240   -5.9760 H   0  0  0  1  0  0
    1.6190    3.5560   -4.8420 H   0  0  0  1  0  0
    1.0240    3.4260   -2.4370 H   0  0  0  1  0  0
   -0.6840    2.9530   -2.5350 H   0  0  0  1  0  0
    0.4820    1.9030   -1.7370 H   0  0  0  1  0  0
    2.8680    1.4430   -0.1860 H   0  0  0  1  0  0
   -0.7720    2.3290    0.6970 H   0  0  0  1  0  0
    6.5520   -0.7550    1.5230 H   0  0  0  1  0  0
   -4.0350    2.3350    3.9170 H   0  0  0  1  0  0
    3.7660   -1.3930    4.7540 H   0  0  0  1  0  0
   -6.4190    0.0490    2.5990 H   0  0  0  1  0  0
   -0.1870   -0.0130    2.5970 H   0  0  0  1  0  0
   -2.3920   -0.1950   -2.7300 H   0  0  0  1  0  0
    3.2180   -0.8650   -1.8850 H   0  0  0  1  0  0
    2.5660   -5.3990    3.2540 H   0  0  0  1  0  0
   -5.9040    0.2430   -2.0970 H   0  0  0  1  0  0
  1 15  1  0
  1 23  1  0
  2 16  1  0
  2 24  1  0
  3 17  1  0
  3 61  1  0
  4 18  1  0
  4 62  1  0
  5 19  1  0
  5 63  1  0
  6 20  1  0
  6 64  1  0
  7 21  1  0
  7 65  1  0
  8 22  1  0
  8 66  1  0
  9 27  1  0
  9 67  1  0
 10 28  1  0
 10 68  1  0
 11 29  1  0
 11 69  1  0
 12 31  1  0
 12 70  1  0
 13 32  1  0
 13 71  1  0
 14 33  2  0
 15 17  1  0
 15 25  1  0
 15 38  1  0
 16 18  1  0
 16 26  1  0
 16 39  1  0
 17 19  1  0
 17 40  1  0
 18 20  1  0
 18 41  1  0
 19 21  1  0
 19 42  1  0
 20 22  1  0
 20 43  1  0
 21 23  1  0
 21 44  1  0
 22 24  1  0
 22 45  1  0
 23 31  1  0
 23 46  1  0
 24 32  1  0
 24 47  1  0
 25 27  2  0
 25 29  1  0
 26 27  1  0
 26 28  2  0
 28 30  1  0
 29 30  2  0
 30 33  1  0
 31 48  1  0
 31 49  1  0
 32 50  1  0
 32 51  1  0
 33 34  1  0
 34 35  1  0
 34 52  1  0
 34 53  1  0
 35 36  1  0
 35 37  1  0
 35 54  1  0
 36 55  1  0
 36 56  1  0
 36 57  1  0
 37 58  1  0
 37 59  1  0
 37 60  1  0
M  END
> <Name>
25001841

> <AbsoluteEnergy>
55.5792

> <ConfNumber>
1

> <Ionization pH>
7.5

> <IonizationIndex>
1

> <NumberOfIonizations>
1

> <NumberOfStereoisomers>
1

> <NumberOfTautomers>
4

> <OBJECTID>
9223374527939149837

> <PUBCHEM_ATOM_DEF_STEREO_COUNT>
9

> <PUBCHEM_ATOM_UDEF_STEREO_COUNT>
1

> <PUBCHEM_BOND_DEF_STEREO_COUNT>
0

> <PUBCHEM_BOND_UDEF_STEREO_COUNT>
0

> <PUBCHEM_CACTVS_TAUTO_COUNT>
25

> <PUBCHEM_COMPONENT_COUNT>
1

> <PUBCHEM_COMPOUND_CID>
25001841

> <PUBCHEM_CONFORMER_DIVERSEORDER>
2
26
37
29
59
53
33
41
47
46
61
48
65
36
49
51
23
57
54
24
31
42
30
55
40
21
60
28
62
45
17
52
64
20
43
32
10
63
16
35
22
3
50
19
58
38
34
27
56
13
39
12
18
1
25
44
4
14
11
7
8
15
6
5
9

> <PUBCHEM_CONFORMER_ID>
017D7F7100000002

> <PUBCHEM_CONFORMER_RMSD>
1

> <PUBCHEM_COORDINATE_TYPE>
2
5
10

> <PUBCHEM_EFFECTIVE_ROTOR_COUNT>
9.4

> <PUBCHEM_FEATURE_SELFOVERLAP>
132.006

> <PUBCHEM_HEAVY_ATOM_COUNT>
37

> <PUBCHEM_ISOTOPIC_ATOM_COUNT>
0

> <PUBCHEM_MMFF94_ENERGY>
118.4297

> <PUBCHEM_MMFF94_PARTIAL_CHARGES>
45
1 -0.56
10 -0.53
11 -0.53
12 -0.68
13 -0.68
14 -0.57
15 0.42
16 0.42
17 0.28
18 0.28
19 0.28
2 -0.56
20 0.28
21 0.28
22 0.28
23 0.28
24 0.28
25 -0.14
26 -0.14
27 0.08
28 0.08
29 0.08
3 -0.68
30 0.09
31 0.28
32 0.28
33 0.42
34 0.06
4 -0.68
5 -0.68
52 0.4
53 0.4
54 0.4
55 0.4
56 0.4
57 0.4
58 0.45
6 -0.68
61 0.45
62 0.45
64 0.4
65 0.4
7 -0.68
8 -0.68
9 -0.53

> <PUBCHEM_PHARMACOPHORE_FEATURES>
26
1 1 acceptor
1 10 donor
1 11 donor
1 12 acceptor
1 12 donor
1 13 acceptor
1 13 donor
1 14 acceptor
1 2 acceptor
1 3 acceptor
1 3 donor
1 4 acceptor
1 4 donor
1 5 acceptor
1 5 donor
1 6 acceptor
1 6 donor
1 7 acceptor
1 7 donor
1 8 acceptor
1 8 donor
1 9 donor
3 35 36 37 hydrophobe
6 1 15 17 19 21 23 rings
6 2 16 18 20 22 24 rings
6 25 26 27 28 29 30 rings

> <PUBCHEM_SHAPE_FINGERPRINT>
10074138 170 17902478564124705578
10190206 1 18187940469684595718
10411042 1 18337115678273593466
10815517 723 18270408191820060545
1100329 8 18408887343527181497
11115154 58 17986647416809196069
11331351 85 18131355228166478035
11991303 11 18051143488461758998
12156800 1 17981641236392210429
12160290 23 18053637236509750506
12440605 4 18193582123169375712
12788726 201 18261104141463816818
131258 43 18197512920562056228
13140716 1 18337660997211678578
13540713 4 17916850341558662898
13690498 29 18271534122245654086
13757389 114 18124052134744113876
13911987 19 17760366596326135196
140371 6 18192153913614967400
14068700 686 18413392043283468654
14508225 48 18410853295981616142
14556957 393 18189638136800911238
14790565 3 17616537255355172418
14856354 85 16882489110912393224
14866123 147 18195530285769068930
15081414 286 18121499313356612738
15082195 135 17619604214451064863
15198563 99 18410014312833285548
15775530 1 18057018282405428400
15927050 60 17835519315242746434
16087824 20 18336831867293349785
17138139 8 17479686648015658845
20101258 96 18336000717652968602
21033648 29 16536785501230694225
21120745 212 18338248119499744636
21133410 32 15504651748410127538
22223350 30 18052802673557929258
23536364 44 18263066777976788559
23559900 14 18118673555187991083
24771750 20 17179412586644240380
255183 313 18125174731303803656
3178227 256 16970559807192203186
3388396 114 18046935898619083924
3610482 184 17753646493453456006
4353968 344 18338248129017835110
4461854 278 17980790163670628625
508180 173 18193247833617505687
5969126 39 18413670215087444070
613672 6 18266162002436596746
6669772 16 17405148426944051670
9658208 31 17911790285546234578

> <PUBCHEM_SHAPE_MULTIPOLES>
679.27
9.76
8.46
1.87
18.07
6.17
-0.14
-7.64
-3.43
-11.35
-0.35
-1.83
-0.15
-2.07

> <PUBCHEM_SHAPE_SELFOVERLAP>
1437.871

> <PUBCHEM_SHAPE_VOLUME>
374.9

> <RelativeEnergy>
0

> <StereoisomerIndex>
1

> <TautomerIndex>
1

> <LibDock Warning>
no hit found

> <ErrorText>
LibDock failed

$$$$
25001841
  SciTegic09112317153D

 71 73  0  0  0  0            999 V2000
   -0.5880    2.3260    1.8030 O   0  0  0  1  0  0
   -1.7750   -3.2880    0.5840 O   0  0  0  1  0  0
    2.8440    1.1980    1.1780 O   0  0  0  1  0  0
    1.6180   -3.6010   -0.8460 O   0  0  0  1  0  0
    2.3910    2.2900    3.7490 O   0  0  0  1  0  0
    0.5250   -6.1000   -1.1420 O   0  0  0  1  0  0
    0.7850    4.9350    1.8800 O   0  0  0  1  0  0
   -1.4070   -6.9130    1.0950 O   0  0  0  1  0  0
    0.0090   -1.4400    1.6940 O   0  0  0  1  0  0
   -1.0360   -1.7380   -2.8170 O   0  0  0  1  0  0
    0.1150    2.5190   -0.9000 O   0  0  0  1  0  0
   -2.7660    3.1330    3.4090 O   0  0  0  1  0  0
   -1.7010   -5.2500    3.5490 O   0  0  0  1  0  0
   -0.9700    0.2970   -4.3560 O   0  0  0  1  0  0
    0.4450    1.3790    1.5600 C   0  0  2  1  0  0
   -0.7350   -3.1170   -0.3840 C   0  0  2  1  0  0
    1.7910    2.1240    1.3860 C   0  0  1  1  0  0
    0.5340   -3.9090    0.0190 C   0  0  1  1  0  0
    2.1070    3.0520    2.5860 C   0  0  1  1  0  0
    0.2410   -5.4370    0.0830 C   0  0  1  1  0  0
    0.8890    3.9470    2.8920 C   0  0  2  1  0  0
   -1.2530   -5.6800    0.4180 C   0  0  2  1  0  0
   -0.4210    3.1230    2.9730 C   0  0  1  1  0  0
   -1.8400   -4.5370    1.2740 C   0  0  1  1  0  0
    0.0530    0.5770    0.3410 C   0  0  0  1  0  0
   -0.5190   -1.6340   -0.5610 C   0  0  0  1  0  0
   -0.1580   -0.8790    0.4960 C   0  0  0  1  0  0
   -0.7050   -1.0300   -1.8950 C   0  0  0  1  0  0
   -0.0940    1.2050   -0.8490 C   0  0  0  1  0  0
   -0.4810    0.4320   -2.0670 C   0  0  0  1  0  0
   -1.6780    3.9850    3.1330 C   0  0  0  1  0  0
   -1.1260   -4.3580    2.6220 C   0  0  0  1  0  0
   -0.6240    1.0140   -3.2880 C   0  0  0  1  0  0
   -0.4020    2.4940   -3.4860 C   0  0  0  1  0  0
    1.0430    2.8190   -3.8640 C   0  0  0  1  0  0
    2.0290    2.5340   -2.7310 C   0  0  0  1  0  0
    1.4660    2.1770   -5.1890 C   0  0  0  1  0  0
    0.4860    0.7050    2.4160 H   0  0  0  1  0  0
   -1.1130   -3.5220   -1.3250 H   0  0  0  1  0  0
    1.7480    2.7330    0.4810 H   0  0  0  1  0  0
    0.8560   -3.5690    1.0060 H   0  0  0  1  0  0
    2.9950    3.6550    2.3870 H   0  0  0  1  0  0
    0.8950   -5.8790    0.8360 H   0  0  0  1  0  0
    1.0410    4.4920    3.8260 H   0  0  0  1  0  0
   -1.8530   -5.7530   -0.4930 H   0  0  0  1  0  0
   -0.3700    2.4410    3.8240 H   0  0  0  1  0  0
   -2.8970   -4.7200    1.4740 H   0  0  0  1  0  0
   -1.8960    4.5240    2.2130 H   0  0  0  1  0  0
   -1.5680    4.6760    3.9700 H   0  0  0  1  0  0
   -1.2620   -3.3430    2.9970 H   0  0  0  1  0  0
   -0.0670   -4.5980    2.5310 H   0  0  0  1  0  0
   -1.0180    2.8550   -4.3100 H   0  0  0  1  0  0
   -0.6950    3.0370   -2.5890 H   0  0  0  1  0  0
    1.1310    3.8520   -4.2020 H   0  0  0  1  0  0
    3.0650    2.6020   -3.0670 H   0  0  0  1  0  0
    1.8750    1.5350   -2.3280 H   0  0  0  1  0  0
    1.8950    3.2470   -1.9180 H   0  0  0  1  0  0
    2.4510    2.5300   -5.4900 H   0  0  0  1  0  0
    1.4860    1.0920   -5.1000 H   0  0  0  1  0  0
    0.7630    2.4340   -5.9810 H   0  0  0  1  0  0
    2.7520    0.8590    0.2730 H   0  0  0  1  0  0
    1.2920   -3.6980   -1.7550 H   0  0  0  1  0  0
    2.7350    2.9050    4.4160 H   0  0  0  1  0  0
    0.4890   -7.0540   -0.9650 H   0  0  0  1  0  0
    1.5460    5.5270    1.9770 H   0  0  0  1  0  0
   -2.3590   -7.0880    1.1610 H   0  0  0  1  0  0
    0.7690   -1.1840    2.2330 H   0  0  0  1  0  0
   -0.4220    3.1060   -0.3500 H   0  0  0  1  0  0
   -3.5520    3.6940    3.5070 H   0  0  0  1  0  0
   -1.2380   -5.1250    4.3910 H   0  0  0  1  0  0
   -1.7190   -0.3110   -4.2950 H   0  0  0  1  0  0
  1 15  1  0
  1 23  1  0
  2 16  1  0
  2 24  1  0
  3 17  1  0
  3 61  1  0
  4 18  1  0
  4 62  1  0
  5 19  1  0
  5 63  1  0
  6 20  1  0
  6 64  1  0
  7 21  1  0
  7 65  1  0
  8 22  1  0
  8 66  1  0
  9 27  1  0
  9 67  1  0
 10 28  2  0
 11 29  1  0
 11 68  1  0
 12 31  1  0
 12 69  1  0
 13 32  1  0
 13 70  1  0
 14 33  1  0
 14 71  1  0
 15 17  1  0
 15 25  1  0
 15 38  1  0
 16 18  1  0
 16 26  1  0
 16 39  1  0
 17 19  1  0
 17 40  1  0
 18 20  1  0
 18 41  1  0
 19 21  1  0
 19 42  1  0
 20 22  1  0
 20 43  1  0
 21 23  1  0
 21 44  1  0
 22 24  1  0
 22 45  1  0
 23 31  1  0
 23 46  1  0
 24 32  1  0
 24 47  1  0
 25 27  1  0
 25 29  2  0
 26 27  2  0
 26 28  1  0
 28 30  1  0
 29 30  1  0
 30 33  2  0
 31 48  1  0
 31 49  1  0
 32 50  1  0
 32 51  1  0
 33 34  1  0
 34 35  1  0
 34 52  1  0
 34 53  1  0
 35 36  1  0
 35 37  1  0
 35 54  1  0
 36 55  1  0
 36 56  1  0
 36 57  1  0
 37 58  1  0
 37 59  1  0
 37 60  1  0
M  END
> <Name>
25001841

> <AbsoluteEnergy>
70.5375

> <ConfNumber>
1

> <Ionization pH>
7.5

> <IonizationIndex>
1

> <NumberOfIonizations>
1

> <NumberOfStereoisomers>
1

> <NumberOfTautomers>
4

> <OBJECTID>
9223374532234117133

> <PUBCHEM_ATOM_DEF_STEREO_COUNT>
9

> <PUBCHEM_ATOM_UDEF_STEREO_COUNT>
1

> <PUBCHEM_BOND_DEF_STEREO_COUNT>
0

> <PUBCHEM_BOND_UDEF_STEREO_COUNT>
0

> <PUBCHEM_CACTVS_TAUTO_COUNT>
25

> <PUBCHEM_COMPONENT_COUNT>
1

> <PUBCHEM_COMPOUND_CID>
25001841

> <PUBCHEM_CONFORMER_DIVERSEORDER>
2
26
37
29
59
53
33
41
47
46
61
48
65
36
49
51
23
57
54
24
31
42
30
55
40
21
60
28
62
45
17
52
64
20
43
32
10
63
16
35
22
3
50
19
58
38
34
27
56
13
39
12
18
1
25
44
4
14
11
7
8
15
6
5
9

> <PUBCHEM_CONFORMER_ID>
017D7F7100000002

> <PUBCHEM_CONFORMER_RMSD>
1

> <PUBCHEM_COORDINATE_TYPE>
2
5
10

> <PUBCHEM_EFFECTIVE_ROTOR_COUNT>
9.4

> <PUBCHEM_FEATURE_SELFOVERLAP>
132.006

> <PUBCHEM_HEAVY_ATOM_COUNT>
37

> <PUBCHEM_ISOTOPIC_ATOM_COUNT>
0

> <PUBCHEM_MMFF94_ENERGY>
118.4297

> <PUBCHEM_MMFF94_PARTIAL_CHARGES>
45
1 -0.56
10 -0.53
11 -0.53
12 -0.68
13 -0.68
14 -0.57
15 0.42
16 0.42
17 0.28
18 0.28
19 0.28
2 -0.56
20 0.28
21 0.28
22 0.28
23 0.28
24 0.28
25 -0.14
26 -0.14
27 0.08
28 0.08
29 0.08
3 -0.68
30 0.09
31 0.28
32 0.28
33 0.42
34 0.06
4 -0.68
5 -0.68
52 0.4
53 0.4
54 0.4
55 0.4
56 0.4
57 0.4
58 0.45
6 -0.68
61 0.45
62 0.45
64 0.4
65 0.4
7 -0.68
8 -0.68
9 -0.53

> <PUBCHEM_PHARMACOPHORE_FEATURES>
26
1 1 acceptor
1 10 donor
1 11 donor
1 12 acceptor
1 12 donor
1 13 acceptor
1 13 donor
1 14 acceptor
1 2 acceptor
1 3 acceptor
1 3 donor
1 4 acceptor
1 4 donor
1 5 acceptor
1 5 donor
1 6 acceptor
1 6 donor
1 7 acceptor
1 7 donor
1 8 acceptor
1 8 donor
1 9 donor
3 35 36 37 hydrophobe
6 1 15 17 19 21 23 rings
6 2 16 18 20 22 24 rings
6 25 26 27 28 29 30 rings

> <PUBCHEM_SHAPE_FINGERPRINT>
10074138 170 17902478564124705578
10190206 1 18187940469684595718
10411042 1 18337115678273593466
10815517 723 18270408191820060545
1100329 8 18408887343527181497
11115154 58 17986647416809196069
11331351 85 18131355228166478035
11991303 11 18051143488461758998
12156800 1 17981641236392210429
12160290 23 18053637236509750506
12440605 4 18193582123169375712
12788726 201 18261104141463816818
131258 43 18197512920562056228
13140716 1 18337660997211678578
13540713 4 17916850341558662898
13690498 29 18271534122245654086
13757389 114 18124052134744113876
13911987 19 17760366596326135196
140371 6 18192153913614967400
14068700 686 18413392043283468654
14508225 48 18410853295981616142
14556957 393 18189638136800911238
14790565 3 17616537255355172418
14856354 85 16882489110912393224
14866123 147 18195530285769068930
15081414 286 18121499313356612738
15082195 135 17619604214451064863
15198563 99 18410014312833285548
15775530 1 18057018282405428400
15927050 60 17835519315242746434
16087824 20 18336831867293349785
17138139 8 17479686648015658845
20101258 96 18336000717652968602
21033648 29 16536785501230694225
21120745 212 18338248119499744636
21133410 32 15504651748410127538
22223350 30 18052802673557929258
23536364 44 18263066777976788559
23559900 14 18118673555187991083
24771750 20 17179412586644240380
255183 313 18125174731303803656
3178227 256 16970559807192203186
3388396 114 18046935898619083924
3610482 184 17753646493453456006
4353968 344 18338248129017835110
4461854 278 17980790163670628625
508180 173 18193247833617505687
5969126 39 18413670215087444070
613672 6 18266162002436596746
6669772 16 17405148426944051670
9658208 31 17911790285546234578

> <PUBCHEM_SHAPE_MULTIPOLES>
679.27
9.76
8.46
1.87
18.07
6.17
-0.14
-7.64
-3.43
-11.35
-0.35
-1.83
-0.15
-2.07

> <PUBCHEM_SHAPE_SELFOVERLAP>
1437.871

> <PUBCHEM_SHAPE_VOLUME>
374.9

> <RelativeEnergy>
0

> <StereoisomerIndex>
1

> <TautomerIndex>
2

> <LibDock Warning>
no hit found

> <ErrorText>
LibDock failed

$$$$
25001841
  SciTegic09112317153D

 71 73  0  0  0  0            999 V2000
   -1.6630   -3.0390    0.2330 O   0  0  0  1  0  0
   -1.3330    2.8670    1.2870 O   0  0  0  1  0  0
    2.0020   -3.1080    0.6990 O   0  0  0  1  0  0
    1.7830    1.5720    2.7260 O   0  0  0  1  0  0
    1.3390   -5.7140    0.1640 O   0  0  0  1  0  0
    0.0960    2.9320    4.5460 O   0  0  0  1  0  0
   -1.4030   -6.5740    1.2300 O   0  0  0  1  0  0
   -0.0110    5.4240    1.9300 O   0  0  0  1  0  0
   -0.7450   -0.9650    1.8920 O   0  0  0  1  0  0
    0.4080    2.8200   -0.7180 O   0  0  0  1  0  0
    0.5750   -1.6420   -2.5010 O   0  0  0  1  0  0
   -3.4050   -3.6580    2.7630 O   0  0  0  1  0  0
   -3.9800    3.9150    1.4330 O   0  0  0  1  0  0
    1.0540    2.4770   -3.1520 O   0  0  0  1  0  0
   -0.2900   -2.8300   -0.1090 C   0  0  2  1  0  0
   -0.4130    1.8680    1.7150 C   0  0  2  1  0  0
    0.6500   -3.4640    0.9470 C   0  0  1  1  0  0
    0.8670    2.5480    2.2600 C   0  0  1  1  0  0
    0.4470   -5.0070    1.0130 C   0  0  1  1  0  0
    0.5550    3.5800    3.3700 C   0  0  1  1  0  0
   -0.9990   -5.3770    0.5920 C   0  0  2  1  0  0
   -0.5560    4.5440    2.8980 C   0  0  2  1  0  0
   -1.9970   -4.2440    0.9280 C   0  0  1  1  0  0
   -1.7620    3.7740    2.3000 C   0  0  1  1  0  0
   -0.0950   -1.3460   -0.3070 C   0  0  0  1  0  0
   -0.1460    0.9610    0.5380 C   0  0  0  1  0  0
   -0.3360   -0.4950    0.7150 C   0  0  0  1  0  0
    0.2570    1.4950   -0.6380 C   0  0  0  1  0  0
    0.3570   -0.8430   -1.6200 C   0  0  0  1  0  0
    0.5270    0.6230   -1.8160 C   0  0  0  1  0  0
   -2.0610   -3.9120    2.4240 C   0  0  0  1  0  0
   -2.8280    4.6880    1.6870 C   0  0  0  1  0  0
    0.9100    1.1600   -3.0040 C   0  0  0  1  0  0
    1.1840    0.2900   -4.2060 C   0  0  0  1  0  0
    1.9200    1.0420   -5.3150 C   0  0  0  1  0  0
    0.9750    1.8340   -6.2190 C   0  0  0  1  0  0
    3.0780    1.8890   -4.7850 C   0  0  0  1  0  0
   -0.1260   -3.3270   -1.0650 H   0  0  0  1  0  0
   -0.9020    1.2830    2.4960 H   0  0  0  1  0  0
    0.4170   -3.0370    1.9220 H   0  0  0  1  0  0
    1.3720    3.0640    1.4400 H   0  0  0  1  0  0
    0.6610   -5.3350    2.0330 H   0  0  0  1  0  0
    1.4540    4.1310    3.6510 H   0  0  0  1  0  0
   -1.0590   -5.5640   -0.4830 H   0  0  0  1  0  0
   -0.8900    5.1730    3.7230 H   0  0  0  1  0  0
   -3.0010   -4.5170    0.5990 H   0  0  0  1  0  0
   -2.2390    3.1790    3.0840 H   0  0  0  1  0  0
   -1.4790   -3.0180    2.6460 H   0  0  0  1  0  0
   -1.7130   -4.7570    3.0210 H   0  0  0  1  0  0
   -2.4810    5.1020    0.7390 H   0  0  0  1  0  0
   -3.0990    5.4830    2.3810 H   0  0  0  1  0  0
    1.8330   -0.5390   -3.9210 H   0  0  0  1  0  0
    0.2500   -0.1310   -4.5790 H   0  0  0  1  0  0
    2.5340    0.3570   -5.9030 H   0  0  0  1  0  0
    0.1640    2.2930   -5.6550 H   0  0  0  1  0  0
    0.5300    1.1840   -6.9740 H   0  0  0  1  0  0
    1.5120    2.6270   -6.7380 H   0  0  0  1  0  0
    2.7190    2.8560   -4.4350 H   0  0  0  1  0  0
    3.5860    1.3800   -3.9660 H   0  0  0  1  0  0
    3.8110    2.0710   -5.5710 H   0  0  0  1  0  0
    2.2080   -3.3820   -0.2080 H   0  0  0  1  0  0
    2.0100    1.8060    3.6390 H   0  0  0  1  0  0
    1.3090   -6.6470    0.4280 H   0  0  0  1  0  0
    0.1100    3.5890    5.2600 H   0  0  0  1  0  0
   -2.2270   -6.8590    0.8050 H   0  0  0  1  0  0
   -0.6000    6.1950    1.8810 H   0  0  0  1  0  0
   -0.4050   -0.5680    2.7040 H   0  0  0  1  0  0
    1.2090    3.1800   -1.1200 H   0  0  0  1  0  0
   -3.4260   -3.4550    3.7110 H   0  0  0  1  0  0
   -4.6430    4.5100    1.0480 H   0  0  0  1  0  0
    0.7200    2.9020   -3.9520 H   0  0  0  1  0  0
  1 15  1  0
  1 23  1  0
  2 16  1  0
  2 24  1  0
  3 17  1  0
  3 61  1  0
  4 18  1  0
  4 62  1  0
  5 19  1  0
  5 63  1  0
  6 20  1  0
  6 64  1  0
  7 21  1  0
  7 65  1  0
  8 22  1  0
  8 66  1  0
  9 27  1  0
  9 67  1  0
 10 28  1  0
 10 68  1  0
 11 29  2  0
 12 31  1  0
 12 69  1  0
 13 32  1  0
 13 70  1  0
 14 33  1  0
 14 71  1  0
 15 17  1  0
 15 25  1  0
 15 38  1  0
 16 18  1  0
 16 26  1  0
 16 39  1  0
 17 19  1  0
 17 40  1  0
 18 20  1  0
 18 41  1  0
 19 21  1  0
 19 42  1  0
 20 22  1  0
 20 43  1  0
 21 23  1  0
 21 44  1  0
 22 24  1  0
 22 45  1  0
 23 31  1  0
 23 46  1  0
 24 32  1  0
 24 47  1  0
 25 27  2  0
 25 29  1  0
 26 27  1  0
 26 28  2  0
 28 30  1  0
 29 30  1  0
 30 33  2  0
 31 48  1  0
 31 49  1  0
 32 50  1  0
 32 51  1  0
 33 34  1  0
 34 35  1  0
 34 52  1  0
 34 53  1  0
 35 36  1  0
 35 37  1  0
 35 54  1  0
 36 55  1  0
 36 56  1  0
 36 57  1  0
 37 58  1  0
 37 59  1  0
 37 60  1  0
M  END
> <Name>
25001841

> <AbsoluteEnergy>
62.4013

> <ConfNumber>
1

> <Ionization pH>
7.5

> <IonizationIndex>
1

> <NumberOfIonizations>
1

> <NumberOfStereoisomers>
1

> <NumberOfTautomers>
4

> <OBJECTID>
9223374536529084429

> <PUBCHEM_ATOM_DEF_STEREO_COUNT>
9

> <PUBCHEM_ATOM_UDEF_STEREO_COUNT>
1

> <PUBCHEM_BOND_DEF_STEREO_COUNT>
0

> <PUBCHEM_BOND_UDEF_STEREO_COUNT>
0

> <PUBCHEM_CACTVS_TAUTO_COUNT>
25

> <PUBCHEM_COMPONENT_COUNT>
1

> <PUBCHEM_COMPOUND_CID>
25001841

> <PUBCHEM_CONFORMER_DIVERSEORDER>
2
26
37
29
59
53
33
41
47
46
61
48
65
36
49
51
23
57
54
24
31
42
30
55
40
21
60
28
62
45
17
52
64
20
43
32
10
63
16
35
22
3
50
19
58
38
34
27
56
13
39
12
18
1
25
44
4
14
11
7
8
15
6
5
9

> <PUBCHEM_CONFORMER_ID>
017D7F7100000002

> <PUBCHEM_CONFORMER_RMSD>
1

> <PUBCHEM_COORDINATE_TYPE>
2
5
10

> <PUBCHEM_EFFECTIVE_ROTOR_COUNT>
9.4

> <PUBCHEM_FEATURE_SELFOVERLAP>
132.006

> <PUBCHEM_HEAVY_ATOM_COUNT>
37

> <PUBCHEM_ISOTOPIC_ATOM_COUNT>
0

> <PUBCHEM_MMFF94_ENERGY>
118.4297

> <PUBCHEM_MMFF94_PARTIAL_CHARGES>
45
1 -0.56
10 -0.53
11 -0.53
12 -0.68
13 -0.68
14 -0.57
15 0.42
16 0.42
17 0.28
18 0.28
19 0.28
2 -0.56
20 0.28
21 0.28
22 0.28
23 0.28
24 0.28
25 -0.14
26 -0.14
27 0.08
28 0.08
29 0.08
3 -0.68
30 0.09
31 0.28
32 0.28
33 0.42
34 0.06
4 -0.68
5 -0.68
52 0.4
53 0.4
54 0.4
55 0.4
56 0.4
57 0.4
58 0.45
6 -0.68
61 0.45
62 0.45
64 0.4
65 0.4
7 -0.68
8 -0.68
9 -0.53

> <PUBCHEM_PHARMACOPHORE_FEATURES>
26
1 1 acceptor
1 10 donor
1 11 donor
1 12 acceptor
1 12 donor
1 13 acceptor
1 13 donor
1 14 acceptor
1 2 acceptor
1 3 acceptor
1 3 donor
1 4 acceptor
1 4 donor
1 5 acceptor
1 5 donor
1 6 acceptor
1 6 donor
1 7 acceptor
1 7 donor
1 8 acceptor
1 8 donor
1 9 donor
3 35 36 37 hydrophobe
6 1 15 17 19 21 23 rings
6 2 16 18 20 22 24 rings
6 25 26 27 28 29 30 rings

> <PUBCHEM_SHAPE_FINGERPRINT>
10074138 170 17902478564124705578
10190206 1 18187940469684595718
10411042 1 18337115678273593466
10815517 723 18270408191820060545
1100329 8 18408887343527181497
11115154 58 17986647416809196069
11331351 85 18131355228166478035
11991303 11 18051143488461758998
12156800 1 17981641236392210429
12160290 23 18053637236509750506
12440605 4 18193582123169375712
12788726 201 18261104141463816818
131258 43 18197512920562056228
13140716 1 18337660997211678578
13540713 4 17916850341558662898
13690498 29 18271534122245654086
13757389 114 18124052134744113876
13911987 19 17760366596326135196
140371 6 18192153913614967400
14068700 686 18413392043283468654
14508225 48 18410853295981616142
14556957 393 18189638136800911238
14790565 3 17616537255355172418
14856354 85 16882489110912393224
14866123 147 18195530285769068930
15081414 286 18121499313356612738
15082195 135 17619604214451064863
15198563 99 18410014312833285548
15775530 1 18057018282405428400
15927050 60 17835519315242746434
16087824 20 18336831867293349785
17138139 8 17479686648015658845
20101258 96 18336000717652968602
21033648 29 16536785501230694225
21120745 212 18338248119499744636
21133410 32 15504651748410127538
22223350 30 18052802673557929258
23536364 44 18263066777976788559
23559900 14 18118673555187991083
24771750 20 17179412586644240380
255183 313 18125174731303803656
3178227 256 16970559807192203186
3388396 114 18046935898619083924
3610482 184 17753646493453456006
4353968 344 18338248129017835110
4461854 278 17980790163670628625
508180 173 18193247833617505687
5969126 39 18413670215087444070
613672 6 18266162002436596746
6669772 16 17405148426944051670
9658208 31 17911790285546234578

> <PUBCHEM_SHAPE_MULTIPOLES>
679.27
9.76
8.46
1.87
18.07
6.17
-0.14
-7.64
-3.43
-11.35
-0.35
-1.83
-0.15
-2.07

> <PUBCHEM_SHAPE_SELFOVERLAP>
1437.871

> <PUBCHEM_SHAPE_VOLUME>
374.9

> <RelativeEnergy>
0

> <StereoisomerIndex>
1

> <TautomerIndex>
3

> <LibDock Warning>
no hit found

> <ErrorText>
LibDock failed

$$$$
25001841
  SciTegic09112317153D

 71 73  0  0  0  0            999 V2000
   -1.8750   -2.5410    0.0030 O   0  0  0  1  0  0
    0.6560    1.5700    2.5470 O   0  0  0  1  0  0
    1.6920   -3.2440   -0.6490 O   0  0  0  1  0  0
   -2.1140    3.3670    1.1380 O   0  0  0  1  0  0
    0.4210   -5.6080   -1.2170 O   0  0  0  1  0  0
   -2.8690    3.3470    3.7740 O   0  0  0  1  0  0
   -2.0320   -6.1800    0.5290 O   0  0  0  1  0  0
   -0.5130    3.5480    5.3680 O   0  0  0  1  0  0
   -0.7640   -0.6210    1.4210 O   0  0  0  1  0  0
    0.8820    3.0250   -0.9690 O   0  0  0  1  0  0
    0.3620   -1.3600   -3.0400 O   0  0  0  1  0  0
   -2.6380   -4.5150    2.8750 O   0  0  0  1  0  0
    1.9430    2.2520    5.7920 O   0  0  0  1  0  0
    1.9830    0.6290   -3.9660 O   0  0  0  1  0  0
   -0.6350   -2.4980   -0.7100 C   0  0  2  1  0  0
   -0.0880    2.1390    1.4800 C   0  0  2  1  0  0
    0.4190   -3.4210   -0.0470 C   0  0  1  1  0  0
   -1.5670    2.3210    1.9260 C   0  0  1  1  0  0
   -0.0490   -4.9060   -0.0740 C   0  0  1  1  0  0
   -1.7060    2.5970    3.4550 C   0  0  1  1  0  0
   -1.5980   -4.9780   -0.0810 C   0  0  2  1  0  0
   -0.4210    3.2730    3.9800 C   0  0  2  1  0  0
   -2.2290   -3.7690    0.6440 C   0  0  1  1  0  0
    0.8480    2.4190    3.6790 C   0  0  1  1  0  0
   -0.2220   -1.0500   -0.8110 C   0  0  0  1  0  0
    0.0500    1.2430    0.2730 C   0  0  0  1  0  0
   -0.3440   -0.1770    0.3760 C   0  0  0  1  0  0
    0.5280    1.7420   -0.8880 C   0  0  0  1  0  0
    0.2540   -0.5630   -1.9760 C   0  0  0  1  0  0
    0.6590    0.8610   -2.0730 C   0  0  0  1  0  0
   -1.8140   -3.6580    2.1170 C   0  0  0  1  0  0
    1.2900    1.4810    4.8120 C   0  0  0  1  0  0
    1.1410    1.3510   -3.2310 C   0  0  0  1  0  0
    0.7070    2.7230   -3.6660 C   0  0  0  1  0  0
    0.1670    2.7370   -5.0960 C   0  0  0  1  0  0
    1.2760    2.6760   -6.1470 C   0  0  0  1  0  0
   -0.9230    1.6910   -5.3250 C   0  0  0  1  0  0
   -0.8390   -2.8670   -1.7150 H   0  0  0  1  0  0
    0.3820    3.0990    1.2480 H   0  0  0  1  0  0
    0.5500   -3.1120    0.9900 H   0  0  0  1  0  0
   -2.1500    1.4290    1.6900 H   0  0  0  1  0  0
    0.3700   -5.4110    0.7990 H   0  0  0  1  0  0
   -1.8190    1.6380    3.9650 H   0  0  0  1  0  0
   -1.9860   -4.9920   -1.1030 H   0  0  0  1  0  0
   -0.3150    4.2400    3.4860 H   0  0  0  1  0  0
   -3.3170   -3.8310    0.6040 H   0  0  0  1  0  0
    1.6720    3.0910    3.4400 H   0  0  0  1  0  0
   -1.9570   -2.6400    2.4820 H   0  0  0  1  0  0
   -0.7800   -3.9760    2.2520 H   0  0  0  1  0  0
    1.9940    0.7350    4.4420 H   0  0  0  1  0  0
    0.4260    1.0050    5.2750 H   0  0  0  1  0  0
   -0.1080    3.0720   -3.0330 H   0  0  0  1  0  0
    1.5360    3.4240   -3.5600 H   0  0  0  1  0  0
   -0.4690    3.6080   -5.2580 H   0  0  0  1  0  0
    0.8850    2.7950   -7.1570 H   0  0  0  1  0  0
    1.7940    1.7170   -6.1030 H   0  0  0  1  0  0
    2.0120    3.4600   -5.9770 H   0  0  0  1  0  0
   -1.3820    1.8210   -6.3060 H   0  0  0  1  0  0
   -0.5110    0.6840   -5.2560 H   0  0  0  1  0  0
   -1.7080    1.7810   -4.5750 H   0  0  0  1  0  0
    2.0500   -2.4070   -0.3190 H   0  0  0  1  0  0
   -1.6600    4.1850    1.3940 H   0  0  0  1  0  0
    0.2420   -6.5500   -1.0670 H   0  0  0  1  0  0
   -3.0480    3.2110    4.7190 H   0  0  0  1  0  0
   -2.9890   -6.2490    0.3780 H   0  0  0  1  0  0
    0.1370    4.2410    5.5660 H   0  0  0  1  0  0
    1.6440    3.2720   -1.5080 H   0  0  0  1  0  0
    0.5810   -2.2920   -2.9120 H   0  0  0  1  0  0
   -2.3630   -4.4320    3.8000 H   0  0  0  1  0  0
    2.2140    1.6450    6.5000 H   0  0  0  1  0  0
    2.3310   -0.2000   -3.6110 H   0  0  0  1  0  0
  1 15  1  0
  1 23  1  0
  2 16  1  0
  2 24  1  0
  3 17  1  0
  3 61  1  0
  4 18  1  0
  4 62  1  0
  5 19  1  0
  5 63  1  0
  6 20  1  0
  6 64  1  0
  7 21  1  0
  7 65  1  0
  8 22  1  0
  8 66  1  0
  9 27  2  0
 10 28  1  0
 10 67  1  0
 11 29  1  0
 11 68  1  0
 12 31  1  0
 12 69  1  0
 13 32  1  0
 13 70  1  0
 14 33  1  0
 14 71  1  0
 15 17  1  0
 15 25  1  0
 15 38  1  0
 16 18  1  0
 16 26  1  0
 16 39  1  0
 17 19  1  0
 17 40  1  0
 18 20  1  0
 18 41  1  0
 19 21  1  0
 19 42  1  0
 20 22  1  0
 20 43  1  0
 21 23  1  0
 21 44  1  0
 22 24  1  0
 22 45  1  0
 23 31  1  0
 23 46  1  0
 24 32  1  0
 24 47  1  0
 25 27  1  0
 25 29  2  0
 26 27  1  0
 26 28  2  0
 28 30  1  0
 29 30  1  0
 30 33  2  0
 31 48  1  0
 31 49  1  0
 32 50  1  0
 32 51  1  0
 33 34  1  0
 34 35  1  0
 34 52  1  0
 34 53  1  0
 35 36  1  0
 35 37  1  0
 35 54  1  0
 36 55  1  0
 36 56  1  0
 36 57  1  0
 37 58  1  0
 37 59  1  0
 37 60  1  0
M  END
> <Name>
25001841

> <AbsoluteEnergy>
64.133

> <ConfNumber>
1

> <Ionization pH>
7.5

> <IonizationIndex>
1

> <NumberOfIonizations>
1

> <NumberOfStereoisomers>
1

> <NumberOfTautomers>
4

> <OBJECTID>
9223374540824051725

> <PUBCHEM_ATOM_DEF_STEREO_COUNT>
9

> <PUBCHEM_ATOM_UDEF_STEREO_COUNT>
1

> <PUBCHEM_BOND_DEF_STEREO_COUNT>
0

> <PUBCHEM_BOND_UDEF_STEREO_COUNT>
0

> <PUBCHEM_CACTVS_TAUTO_COUNT>
25

> <PUBCHEM_COMPONENT_COUNT>
1

> <PUBCHEM_COMPOUND_CID>
25001841

> <PUBCHEM_CONFORMER_DIVERSEORDER>
2
26
37
29
59
53
33
41
47
46
61
48
65
36
49
51
23
57
54
24
31
42
30
55
40
21
60
28
62
45
17
52
64
20
43
32
10
63
16
35
22
3
50
19
58
38
34
27
56
13
39
12
18
1
25
44
4
14
11
7
8
15
6
5
9

> <PUBCHEM_CONFORMER_ID>
017D7F7100000002

> <PUBCHEM_CONFORMER_RMSD>
1

> <PUBCHEM_COORDINATE_TYPE>
2
5
10

> <PUBCHEM_EFFECTIVE_ROTOR_COUNT>
9.4

> <PUBCHEM_FEATURE_SELFOVERLAP>
132.006

> <PUBCHEM_HEAVY_ATOM_COUNT>
37

> <PUBCHEM_ISOTOPIC_ATOM_COUNT>
0

> <PUBCHEM_MMFF94_ENERGY>
118.4297

> <PUBCHEM_MMFF94_PARTIAL_CHARGES>
45
1 -0.56
10 -0.53
11 -0.53
12 -0.68
13 -0.68
14 -0.57
15 0.42
16 0.42
17 0.28
18 0.28
19 0.28
2 -0.56
20 0.28
21 0.28
22 0.28
23 0.28
24 0.28
25 -0.14
26 -0.14
27 0.08
28 0.08
29 0.08
3 -0.68
30 0.09
31 0.28
32 0.28
33 0.42
34 0.06
4 -0.68
5 -0.68
52 0.4
53 0.4
54 0.4
55 0.4
56 0.4
57 0.4
58 0.45
6 -0.68
61 0.45
62 0.45
64 0.4
65 0.4
7 -0.68
8 -0.68
9 -0.53

> <PUBCHEM_PHARMACOPHORE_FEATURES>
26
1 1 acceptor
1 10 donor
1 11 donor
1 12 acceptor
1 12 donor
1 13 acceptor
1 13 donor
1 14 acceptor
1 2 acceptor
1 3 acceptor
1 3 donor
1 4 acceptor
1 4 donor
1 5 acceptor
1 5 donor
1 6 acceptor
1 6 donor
1 7 acceptor
1 7 donor
1 8 acceptor
1 8 donor
1 9 donor
3 35 36 37 hydrophobe
6 1 15 17 19 21 23 rings
6 2 16 18 20 22 24 rings
6 25 26 27 28 29 30 rings

> <PUBCHEM_SHAPE_FINGERPRINT>
10074138 170 17902478564124705578
10190206 1 18187940469684595718
10411042 1 18337115678273593466
10815517 723 18270408191820060545
1100329 8 18408887343527181497
11115154 58 17986647416809196069
11331351 85 18131355228166478035
11991303 11 18051143488461758998
12156800 1 17981641236392210429
12160290 23 18053637236509750506
12440605 4 18193582123169375712
12788726 201 18261104141463816818
131258 43 18197512920562056228
13140716 1 18337660997211678578
13540713 4 17916850341558662898
13690498 29 18271534122245654086
13757389 114 18124052134744113876
13911987 19 17760366596326135196
140371 6 18192153913614967400
14068700 686 18413392043283468654
14508225 48 18410853295981616142
14556957 393 18189638136800911238
14790565 3 17616537255355172418
14856354 85 16882489110912393224
14866123 147 18195530285769068930
15081414 286 18121499313356612738
15082195 135 17619604214451064863
15198563 99 18410014312833285548
15775530 1 18057018282405428400
15927050 60 17835519315242746434
16087824 20 18336831867293349785
17138139 8 17479686648015658845
20101258 96 18336000717652968602
21033648 29 16536785501230694225
21120745 212 18338248119499744636
21133410 32 15504651748410127538
22223350 30 18052802673557929258
23536364 44 18263066777976788559
23559900 14 18118673555187991083
24771750 20 17179412586644240380
255183 313 18125174731303803656
3178227 256 16970559807192203186
3388396 114 18046935898619083924
3610482 184 17753646493453456006
4353968 344 18338248129017835110
4461854 278 17980790163670628625
508180 173 18193247833617505687
5969126 39 18413670215087444070
613672 6 18266162002436596746
6669772 16 17405148426944051670
9658208 31 17911790285546234578

> <PUBCHEM_SHAPE_MULTIPOLES>
679.27
9.76
8.46
1.87
18.07
6.17
-0.14
-7.64
-3.43
-11.35
-0.35
-1.83
-0.15
-2.07

> <PUBCHEM_SHAPE_SELFOVERLAP>
1437.871

> <PUBCHEM_SHAPE_VOLUME>
374.9

> <RelativeEnergy>
0

> <StereoisomerIndex>
1

> <TautomerIndex>
4

> <LibDock Warning>
no hit found

> <ErrorText>
LibDock failed

$$$$
46173916
  SciTegic09112317153D

137144  0  0  0  0            999 V2000
    5.2870    0.1180   -1.0170 O   0  0  0  1  0  0
    7.0350    1.5720   -0.5430 O   0  0  0  1  0  0
   -5.4370    0.4730    2.0650 O   0  0  0  1  0  0
   -6.8570    1.4930    0.5660 O   0  0  0  1  0  0
    9.9020   -2.0860   -1.2920 O   0  0  0  1  0  0
   -7.4040   -1.6270    2.4080 O   0  0  0  1  0  0
  -10.1050   -0.8010    1.7180 O   0  0  0  1  0  0
  -10.1840    0.7610   -0.7330 O   0  0  0  1  0  0
   11.8010   -3.4560   -1.6540 O   0  0  0  1  0  0
   -6.8310    3.1870   -1.6090 O   0  0  0  1  0  0
    9.8090   -5.6950   -1.6020 O   0  0  0  1  0  0
  -11.9960    1.6510    0.3710 O   0  0  0  1  0  0
    9.1240   -3.1410   -4.0670 O   0  0  0  1  0  0
   11.8380   -5.5180   -3.8170 O   0  0  0  1  0  0
  -11.0300    1.8880   -3.2000 O   0  0  0  1  0  0
   12.5680   -0.9670   -2.5100 O   0  0  0  1  0  0
  -12.2830    4.2640   -2.6200 O   0  0  0  1  0  0
  -14.6880    3.9160   -0.7030 O   0  0  0  1  0  0
    2.9170    0.4560    1.1830 C   0  0  1  1  0  0
    1.9860    0.7450   -0.0040 C   0  0  2  1  0  0
    4.1880    1.1950    0.7210 C   0  0  2  1  0  0
    0.6390    0.0260    0.1480 C   0  0  1  1  0  0
    4.1900    0.9760   -0.7960 C   0  0  2  1  0  0
   -0.0570    0.4910    1.4520 C   0  0  2  1  0  0
    2.8540    0.3410   -1.1960 C   0  0  0  1  0  0
    2.2670    1.0520    2.4360 C   0  0  0  1  0  0
    5.5640    0.6800    1.2030 C   0  0  1  1  0  0
    0.8960    0.3870    2.6720 C   0  0  0  1  0  0
   -1.3920   -0.2920    1.6310 C   0  0  2  1  0  0
    6.3240    0.4240   -0.1120 C   0  0  1  1  0  0
    3.1580   -1.0550    1.3370 C   0  0  0  1  0  0
   -0.2390    0.2970   -1.0830 C   0  0  0  1  0  0
   -2.2370   -0.1770    0.3660 C   0  0  0  1  0  0
   -2.2320    0.2040    2.8460 C   0  0  0  1  0  0
   -1.7130    0.0480   -0.8590 C   0  0  0  1  0  0
    6.2280    1.6470    2.1840 C   0  0  0  1  0  0
   -1.0880   -1.7860    1.8300 C   0  0  0  1  0  0
    7.3000   -0.7440   -0.0520 C   0  0  0  1  0  0
   -3.7340   -0.2920    0.5500 C   0  0  0  1  0  0
   -3.2120    1.3320    2.4840 C   0  0  0  1  0  0
   -4.2440    0.8760    1.4230 C   0  0  2  1  0  0
    8.3400   -0.4840    1.0390 C   0  0  0  1  0  0
    9.5210   -1.4520    0.9710 C   0  0  1  1  0  0
   -6.5070    0.2520    1.1640 C   0  0  2  1  0  0
   10.3860   -1.2430   -0.2730 C   0  0  0  1  0  0
   10.3410   -1.4730    2.2620 C   0  0  0  1  0  0
   -7.7300   -0.3390    1.9100 C   0  0  1  1  0  0
   -8.9530   -0.4440    0.9710 C   0  0  2  1  0  0
   -7.8920    1.4230   -0.4050 C   0  0  1  1  0  0
   -9.1860    0.9070    0.2610 C   0  0  1  1  0  0
   10.4340   -3.3950   -1.2340 C   0  0  2  1  0  0
   -8.0470    2.8300   -0.9930 C   0  0  0  1  0  0
    9.5420   -4.3750   -2.0390 C   0  0  1  1  0  0
  -11.1190    1.8210   -0.7450 C   0  0  2  1  0  0
    9.7680   -4.2980   -3.5670 C   0  0  2  1  0  0
   12.0680   -3.2380   -3.0420 C   0  0  1  1  0  0
   11.2700   -4.2240   -3.9310 C   0  0  1  1  0  0
  -11.9040    1.8760   -2.0810 C   0  0  1  1  0  0
   11.8270   -1.7670   -3.4020 C   0  0  0  1  0  0
  -12.8820    3.0880   -2.0930 C   0  0  1  1  0  0
  -13.3310    2.1430    0.2330 C   0  0  2  1  0  0
  -13.3670    3.4080   -0.6530 C   0  0  2  1  0  0
  -13.8600    2.3640    1.6540 C   0  0  0  1  0  0
    1.7970    1.8100   -0.0640 H   0  0  0  1  0  0
    4.0850    2.2540    0.9090 H   0  0  0  1  0  0
    0.8160   -1.0490    0.2040 H   0  0  0  1  0  0
    4.3640    1.9110   -1.3130 H   0  0  0  1  0  0
   -0.3000    1.5480    1.3360 H   0  0  0  1  0  0
    2.9130   -0.7360   -1.2860 H   0  0  0  1  0  0
    2.4780    0.7330   -2.1310 H   0  0  0  1  0  0
    2.9120    0.9040    3.3030 H   0  0  0  1  0  0
    2.1370    2.1290    2.3230 H   0  0  0  1  0  0
    5.4480   -0.2590    1.7200 H   0  0  0  1  0  0
    1.0470   -0.6600    2.9360 H   0  0  0  1  0  0
    0.4510    0.8560    3.5470 H   0  0  0  1  0  0
    2.2230   -1.6100    1.4090 H   0  0  0  1  0  0
    3.7400   -1.2620    2.2350 H   0  0  0  1  0  0
    3.7120   -1.4440    0.4820 H   0  0  0  1  0  0
    0.1030   -0.3010   -1.9260 H   0  0  0  1  0  0
   -0.1310    1.3400   -1.3880 H   0  0  0  1  0  0
   -2.8240   -0.6200    3.2440 H   0  0  0  1  0  0
   -1.6020    0.5170    3.6750 H   0  0  0  1  0  0
   -2.3650    0.0570   -1.7190 H   0  0  0  1  0  0
    7.2260    1.3140    2.4700 H   0  0  0  1  0  0
    5.6360    1.7420    3.0930 H   0  0  0  1  0  0
    6.3240    2.6380    1.7420 H   0  0  0  1  0  0
   -1.9980   -2.3680    1.9840 H   0  0  0  1  0  0
   -0.4450   -1.9350    2.6970 H   0  0  0  1  0  0
   -0.5750   -2.1930    0.9590 H   0  0  0  1  0  0
    7.7840   -0.8930   -1.0180 H   0  0  0  1  0  0
    6.7710   -1.6800    0.1340 H   0  0  0  1  0  0
   -4.2540   -0.3040   -0.4100 H   0  0  0  1  0  0
   -3.9370   -1.2570    1.0180 H   0  0  0  1  0  0
   -2.6360    2.1680    2.0820 H   0  0  0  1  0  0
   -3.6980    1.7170    3.3800 H   0  0  0  1  0  0
   -4.5000    1.7270    0.7930 H   0  0  0  1  0  0
    8.6840    0.5500    1.0030 H   0  0  0  1  0  0
    7.8770   -0.5090    2.0240 H   0  0  0  1  0  0
    9.1770   -2.4840    1.0320 H   0  0  0  1  0  0
   -6.1520   -0.4220    0.3820 H   0  0  0  1  0  0
   11.4210   -1.5130   -0.0720 H   0  0  0  1  0  0
   10.3150   -0.2120   -0.6220 H   0  0  0  1  0  0
    9.7040   -1.6890    3.1200 H   0  0  0  1  0  0
   11.1280   -2.2250    2.2070 H   0  0  0  1  0  0
   10.8150   -0.5060    2.4330 H   0  0  0  1  0  0
   -7.9770    0.2910    2.7690 H   0  0  0  1  0  0
   -8.7810   -1.2270    0.2270 H   0  0  0  1  0  0
   -7.5630    0.7410   -1.1920 H   0  0  0  1  0  0
   -9.5470    1.6480    0.9780 H   0  0  0  1  0  0
   10.4200   -3.6550   -0.1740 H   0  0  0  1  0  0
   -8.2560    3.5560   -0.2060 H   0  0  0  1  0  0
   -8.8300    2.8460   -1.7530 H   0  0  0  1  0  0
    8.4880   -4.2120   -1.8010 H   0  0  0  1  0  0
  -10.5740    2.7560   -0.5950 H   0  0  0  1  0  0
    9.2850   -5.1340   -4.0760 H   0  0  0  1  0  0
   13.1360   -3.4150   -3.1710 H   0  0  0  1  0  0
   11.3940   -3.9530   -4.9800 H   0  0  0  1  0  0
  -12.4910    0.9610   -2.1760 H   0  0  0  1  0  0
   10.7730   -1.5120   -3.2920 H   0  0  0  1  0  0
   12.1740   -1.5570   -4.4150 H   0  0  0  1  0  0
  -13.7190    2.8400   -2.7500 H   0  0  0  1  0  0
  -13.9110    1.3530   -0.2450 H   0  0  0  1  0  0
  -12.7470    4.1760   -0.1850 H   0  0  0  1  0  0
  -13.7440    1.4730    2.2730 H   0  0  0  1  0  0
  -14.9190    2.6210    1.6360 H   0  0  0  1  0  0
  -13.3270    3.1800    2.1410 H   0  0  0  1  0  0
    7.4170    1.3630   -1.4090 H   0  0  0  1  0  0
   -6.8500   -1.4990    3.1930 H   0  0  0  1  0  0
  -10.7550   -1.1550    1.0910 H   0  0  0  1  0  0
   -6.9470    4.0780   -1.9750 H   0  0  0  1  0  0
    9.5330   -5.7520   -0.6750 H   0  0  0  1  0  0
    9.1460   -3.1960   -5.0350 H   0  0  0  1  0  0
   12.7250   -5.4760   -4.2100 H   0  0  0  1  0  0
  -10.6930    0.9860   -3.3090 H   0  0  0  1  0  0
   12.4180   -0.0420   -2.7620 H   0  0  0  1  0  0
  -12.9960    4.9070   -2.7650 H   0  0  0  1  0  0
  -14.8360    4.4060    0.1210 H   0  0  0  1  0  0
  1 23  1  0
  1 30  1  0
  2 30  1  0
  2127  1  0
  3 41  1  0
  3 44  1  0
  4 44  1  0
  4 49  1  0
  5 45  1  0
  5 51  1  0
  6 47  1  0
  6128  1  0
  7 48  1  0
  7129  1  0
  8 50  1  0
  8 54  1  0
  9 51  1  0
  9 56  1  0
 10 52  1  0
 10130  1  0
 11 53  1  0
 11131  1  0
 12 54  1  0
 12 61  1  0
 13 55  1  0
 13132  1  0
 14 57  1  0
 14133  1  0
 15 58  1  0
 15134  1  0
 16 59  1  0
 16135  1  0
 17 60  1  0
 17136  1  0
 18 62  1  0
 18137  1  0
 19 20  1  0
 19 21  1  0
 19 26  1  0
 19 31  1  0
 20 22  1  0
 20 25  1  0
 20 64  1  0
 21 23  1  0
 21 27  1  0
 21 65  1  0
 22 24  1  0
 22 32  1  0
 22 66  1  0
 23 25  1  0
 23 67  1  0
 24 28  1  0
 24 29  1  0
 24 68  1  0
 25 69  1  0
 25 70  1  0
 26 28  1  0
 26 71  1  0
 26 72  1  0
 27 30  1  0
 27 36  1  0
 27 73  1  0
 28 74  1  0
 28 75  1  0
 29 33  1  0
 29 34  1  0
 29 37  1  0
 30 38  1  0
 31 76  1  0
 31 77  1  0
 31 78  1  0
 32 35  1  0
 32 79  1  0
 32 80  1  0
 33 35  2  0
 33 39  1  0
 34 40  1  0
 34 81  1  0
 34 82  1  0
 35 83  1  0
 36 84  1  0
 36 85  1  0
 36 86  1  0
 37 87  1  0
 37 88  1  0
 37 89  1  0
 38 42  1  0
 38 90  1  0
 38 91  1  0
 39 41  1  0
 39 92  1  0
 39 93  1  0
 40 41  1  0
 40 94  1  0
 40 95  1  0
 41 96  1  0
 42 43  1  0
 42 97  1  0
 42 98  1  0
 43 45  1  0
 43 46  1  0
 43 99  1  0
 44 47  1  0
 44100  1  0
 45101  1  0
 45102  1  0
 46103  1  0
 46104  1  0
 46105  1  0
 47 48  1  0
 47106  1  0
 48 50  1  0
 48107  1  0
 49 50  1  0
 49 52  1  0
 49108  1  0
 50109  1  0
 51 53  1  0
 51110  1  0
 52111  1  0
 52112  1  0
 53 55  1  0
 53113  1  0
 54 58  1  0
 54114  1  0
 55 57  1  0
 55115  1  0
 56 57  1  0
 56 59  1  0
 56116  1  0
 57117  1  0
 58 60  1  0
 58118  1  0
 59119  1  0
 59120  1  0
 60 62  1  0
 60121  1  0
 61 62  1  0
 61 63  1  0
 61122  1  0
 62123  1  0
 63124  1  0
 63125  1  0
 63126  1  0
M  END
> <Name>
46173916

> <AbsoluteEnergy>
77.6734

> <ConfNumber>
1

> <IonizationIndex>
1

> <NumberOfIonizations>
1

> <NumberOfStereoisomers>
1

> <NumberOfTautomers>
1

> <OBJECTID>
9223374549413986317

> <PUBCHEM_ATOM_DEF_STEREO_COUNT>
26

> <PUBCHEM_ATOM_UDEF_STEREO_COUNT>
0

> <PUBCHEM_BONDANNOTATIONS>
53  11  6
55  13  5
57  14  6
58  15  5
60  17  5
62  18  6
19  31  5
30  2  6
20  64  6
21  65  6
22  66  5
23  67  6
24  68  6
27  36  6
29  37  5
41  3  5
44  3  5
43  46  6
49  52  5
51  5  5
56  59  5
47  6  6
61  63  5
48  7  5
50  8  6
54  8  6

> <PUBCHEM_BOND_DEF_STEREO_COUNT>
0

> <PUBCHEM_BOND_UDEF_STEREO_COUNT>
0

> <PUBCHEM_CACTVS_COMPLEXITY>
1610

> <PUBCHEM_CACTVS_HBOND_ACCEPTOR>
18

> <PUBCHEM_CACTVS_HBOND_DONOR>
11

> <PUBCHEM_CACTVS_ROTATABLE_BOND>
12

> <PUBCHEM_CACTVS_SUBSKEYS>
AAADcfB8PgAAAAAAAAAAAAAAAAAAAaIAAAA0aJECAAASAGCAAAAAGgAACAAADxSwgAMCCAAABgCAAiBCAAAAAAAgAAAACAAAAAgREAIAAQAiQAAFwAAPAAPA4PwPgAAAAAAAAADAAAQAACAAAYAADAAAAA==

> <PUBCHEM_CACTVS_TAUTO_COUNT>
-1

> <PUBCHEM_CACTVS_TPSA>
287

> <PUBCHEM_COMPONENT_COUNT>
1

> <PUBCHEM_COMPOUND_CANONICALIZED>
1

> <PUBCHEM_COMPOUND_CID>
46173916

> <PUBCHEM_COORDINATE_TYPE>
1
5
255

> <PUBCHEM_EXACT_MASS>
902.48751551

> <PUBCHEM_HEAVY_ATOM_COUNT>
63

> <PUBCHEM_ISOTOPIC_ATOM_COUNT>
0

> <PUBCHEM_IUPAC_CAS_NAME>
(2S,3R,4R,5R,6S)-2-[[(2R,3S,4R,5R,6R)-4,5-dihydroxy-2-(hydroxymethyl)-6-[[(1S,2S,4S,6R,7S,8R,9S,12S,13R,16S)-6-hydroxy-7,9,13-trimethyl-6-[(3S)-3-methyl-4-[[(2R,3R,4S,5S,6R)-3,4,5-trihydroxy-6-(hydrox
ymethyl)-2-oxanyl]oxy]butyl]-5-oxapentacyclo[10.8.0.02,9.04,8.013,18]eicos-18-en-16-yl]oxy]-3-oxanyl]oxy]-6-methyloxane-3,4,5-triol

> <PUBCHEM_IUPAC_INCHI>
InChI=1S/C45H74O18/c1-19(18-57-40-36(53)34(51)32(49)28(16-46)60-40)8-13-45(56)20(2)30-27(63-45)15-26-24-7-6-22-14-23(9-11-43(22,4)25(24)10-12-44(26,30)5)59-42-38(55)35(52)39(29(17-47)61-42)62-41-37(54
)33(50)31(48)21(3)58-41/h6,19-21,23-42,46-56H,7-18H2,1-5H3/t19-,20-,21-,23-,24+,25-,26-,27-,28+,29+,30-,31-,32+,33+,34-,35+,36+,37+,38+,39+,40+,41-,42+,43-,44-,45+/m0/s1

> <PUBCHEM_IUPAC_INCHIKEY>
RKFMVZQLJBGJKK-AAYAUBGESA-N

> <PUBCHEM_IUPAC_NAME>
(2S,3R,4R,5R,6S)-2-[(2R,3S,4R,5R,6R)-4,5-dihydroxy-2-(hydroxymethyl)-6-[[(1S,2S,4S,6R,7S,8R,9S,12S,13R,16S)-6-hydroxy-7,9,13-trimethyl-6-[(3S)-3-methyl-4-[(2R,3R,4S,5S,6R)-3,4,5-trihydroxy-6-(hydroxym
ethyl)oxan-2-yl]oxybutyl]-5-oxapentacyclo[10.8.0.02,9.04,8.013,18]icos-18-en-16-yl]oxy]oxan-3-yl]oxy-6-methyloxane-3,4,5-triol

> <PUBCHEM_IUPAC_NAME_MARKUP>
(2<I>S</I>,3<I>R</I>,4<I>R</I>,5<I>R</I>,6<I>S</I>)-2-[(2<I>R</I>,3<I>S</I>,4<I>R</I>,5<I>R</I>,6<I>R</I>)-4,5-dihydroxy-2-(hydroxymethyl)-6-[[(1<I>S</I>,2<I>S</I>,4<I>S</I>,6<I>R</I>,7<I>S</I>,8<I>R<
/I>,9<I>S</I>,12<I>S</I>,13<I>R</I>,16<I>S</I>)-6-hydroxy-7,9,13-trimethyl-6-[(3<I>S</I>)-3-methyl-4-[(2<I>R</I>,3<I>R</I>,4<I>S</I>,5<I>S</I>,6<I>R</I>)-3,4,5-trihydroxy-6-(hydroxymethyl)oxan-2-yl]ox
ybutyl]-5-oxapentacyclo[10.8.0.0<SUP>2,9</SUP>.0<SUP>4,8</SUP>.0<SUP>13,18</SUP>]icos-18-en-16-yl]oxy]oxan-3-yl]oxy-6-methyloxane-3,4,5-triol

> <PUBCHEM_IUPAC_OPENEYE_NAME>
(2S,3R,4R,5R,6S)-2-[(2R,3S,4R,5R,6R)-4,5-dihydroxy-2-(hydroxymethyl)-6-[[(1S,2S,4S,6R,7S,8R,9S,12S,13R,16S)-6-hydroxy-7,9,13-trimethyl-6-[(3S)-3-methyl-4-[(2R,3R,4S,5S,6R)-3,4,5-trihydroxy-6-(hydroxym
ethyl)tetrahydropyran-2-yl]oxy-butyl]-5-oxapentacyclo[10.8.0.02,9.04,8.013,18]icos-18-en-16-yl]oxy]tetrahydropyran-3-yl]oxy-6-methyl-tetrahydropyran-3,4,5-triol

> <PUBCHEM_IUPAC_SYSTEMATIC_NAME>
(2S,3R,4R,5R,6S)-2-[(2R,3S,4R,5R,6R)-2-(hydroxymethyl)-6-[[(1S,2S,4S,6R,7S,8R,9S,12S,13R,16S)-6-[(3S)-4-[(2R,3R,4S,5S,6R)-6-(hydroxymethyl)-3,4,5-tris(oxidanyl)oxan-2-yl]oxy-3-methyl-butyl]-7,9,13-tri
methyl-6-oxidanyl-5-oxapentacyclo[10.8.0.02,9.04,8.013,18]icos-18-en-16-yl]oxy]-4,5-bis(oxidanyl)oxan-3-yl]oxy-6-methyl-oxane-3,4,5-triol

> <PUBCHEM_IUPAC_TRADITIONAL_NAME>
(2S,3R,4R,5R,6S)-2-[(2R,3S,4R,5R,6R)-4,5-dihydroxy-6-[[(1S,2S,4S,6R,7S,8R,9S,12S,13R,16S)-6-hydroxy-7,9,13-trimethyl-6-[(3S)-3-methyl-4-[(2R,3R,4S,5S,6R)-3,4,5-trihydroxy-6-methylol-tetrahydropyran-2-
yl]oxy-butyl]-5-oxapentacyclo[10.8.0.02,9.04,8.013,18]eicos-18-en-16-yl]oxy]-2-methylol-tetrahydropyran-3-yl]oxy-6-methyl-tetrahydropyran-3,4,5-triol

> <PUBCHEM_MOLECULAR_FORMULA>
C45H74O18

> <PUBCHEM_MOLECULAR_WEIGHT>
903.1

> <PUBCHEM_MONOISOTOPIC_WEIGHT>
902.48751551

> <PUBCHEM_OPENEYE_CAN_SMILES>
CC1C2C(CC3C2(CCC4C3CC=C5C4(CCC(C5)OC6C(C(C(C(O6)CO)OC7C(C(C(C(O7)C)O)O)O)O)O)C)C)OC1(CCC(C)COC8C(C(C(C(O8)CO)O)O)O)O

> <PUBCHEM_OPENEYE_ISO_SMILES>
C[C@H]1[C@H]2[C@H](C[C@@H]3[C@@]2(CC[C@H]4[C@H]3CC=C5[C@@]4(CC[C@@H](C5)O[C@H]6[C@@H]([C@H]([C@@H]([C@H](O6)CO)O[C@H]7[C@@H]([C@@H]([C@H]([C@@H](O7)C)O)O)O)O)O)C)C)O[C@@]1(CC[C@H](C)CO[C@H]8[C@@H]([C@
H]([C@@H]([C@H](O8)CO)O)O)O)O

> <PUBCHEM_TOTAL_CHARGE>
0

> <PUBCHEM_XLOGP3_AA>
-0.2

> <RelativeEnergy>
0

> <StereoisomerIndex>
1

> <TautomerIndex>
1

> <LibDock Warning>
no hit found

> <ErrorText>
LibDock failed

$$$$
60208888
  SciTegic09112317153D

136143  0  0  0  0            999 V2000
   -1.8610    0.6600    0.6210 O   0  0  0  1  0  0
    6.6070   -2.4550   -1.3780 O   0  0  0  1  0  0
    4.9900   -3.7540   -0.5320 O   0  0  0  1  0  0
   -1.8200    3.0120    0.9130 O   0  0  0  1  0  0
   -4.5700    2.8960   -0.2740 O   0  0  0  1  0  0
   -4.1270    0.8550    2.6770 O   0  0  0  1  0  0
    6.8420   -2.3320    0.9190 O   0  0  0  1  0  0
   -4.0700    4.4460    2.2570 O   0  0  0  1  0  0
    9.3450   -2.9930   -1.6960 O   0  0  0  1  0  0
   -3.6600    2.8570   -2.4430 O   0  0  0  1  0  0
    0.0620    2.0530    2.6560 O   0  0  0  1  0  0
   10.8510   -2.1690    0.8740 O   0  0  0  1  0  0
   -6.3010    0.4230    3.2940 O   0  0  0  1  0  0
    8.4620   -4.4360    2.2060 O   0  0  0  1  0  0
   -6.4390    2.5510   -3.3660 O   0  0  0  1  0  0
   -3.7280   -1.9900    2.3050 O   0  0  0  1  0  0
    7.1630    0.1040    2.6040 O   0  0  0  1  0  0
   -7.0160    5.2910   -2.9900 O   0  0  0  1  0  0
   -4.3290    6.3600   -3.2540 O   0  0  0  1  0  0
   -5.5990   -3.6240    3.8160 O   0  0  0  1  0  0
   -8.3140   -2.5920    3.6820 O   0  0  0  1  0  0
   -8.9480    1.4900    3.2360 O   0  0  0  1  0  0
    0.7630   -1.4180   -0.8040 C   0  0  2  1  0  0
    1.6550   -0.3770   -1.5640 C   0  0  2  1  0  0
    3.1420   -0.8260   -1.6820 C   0  0  1  1  0  0
    3.1740   -2.2570   -2.3030 C   0  0  2  1  0  0
    0.0730   -0.7860    0.4300 C   0  0  0  1  0  0
   -0.8300    0.2460   -0.2580 C   0  0  2  1  0  0
    1.4890   -2.7010   -0.3780 C   0  0  0  1  0  0
    1.4820    1.0540   -0.9930 C   0  0  0  1  0  0
   -0.4800   -1.7440   -1.6580 C   0  0  0  1  0  0
    2.3270   -3.2930   -1.5190 C   0  0  0  1  0  0
    4.5990   -2.7730   -2.6540 C   0  0  2  1  0  0
    3.9110    0.1430   -2.6090 C   0  0  0  1  0  0
    0.0150    1.4510   -0.7200 C   0  0  0  1  0  0
   -1.3620   -0.5550   -1.4180 C   0  0  0  1  0  0
    3.8160   -0.8000   -0.2980 C   0  0  0  1  0  0
    5.3310   -1.7400   -3.5360 C   0  0  0  1  0  0
    5.3350   -0.3350   -2.9240 C   0  0  0  1  0  0
    4.5050   -4.0960   -3.4220 C   0  0  0  1  0  0
    5.4160   -3.0460   -1.4130 C   0  0  0  1  0  0
   -2.4570   -0.2610   -2.1420 C   0  0  0  1  0  0
   -2.4350    1.9000    0.2560 C   0  0  2  1  0  0
   -3.9690    1.8690    0.4970 C   0  0  1  1  0  0
   -4.3630    2.0650    1.9820 C   0  0  2  1  0  0
    7.3930   -2.8860   -0.2750 C   0  0  2  1  0  0
   -2.0360    3.1420    2.3220 C   0  0  1  1  0  0
   -3.5470    3.1930    2.6590 C   0  0  1  1  0  0
    8.8700   -2.4820   -0.4660 C   0  0  1  1  0  0
   -1.2840    2.0370    3.0760 C   0  0  0  1  0  0
   -4.7820    2.5260   -1.6230 C   0  0  2  1  0  0
    9.7410   -3.0300    0.6930 C   0  0  2  1  0  0
    7.7270   -2.1420    2.0270 C   0  0  1  1  0  0
    8.9350   -3.1130    2.0180 C   0  0  1  1  0  0
   -5.1890   -0.0710    2.5610 C   0  0  2  1  0  0
   -6.0760    3.1930   -2.1540 C   0  0  1  1  0  0
   -4.7640   -1.4550    3.1140 C   0  0  1  1  0  0
    8.1730   -0.6750    2.0030 C   0  0  0  1  0  0
   -5.8760    4.7110   -2.3760 C   0  0  1  1  0  0
   -3.3800    4.2490   -2.5910 C   0  0  2  1  0  0
   -4.6000    4.9710   -3.2080 C   0  0  2  1  0  0
   -5.9600   -2.4340    3.1320 C   0  0  2  1  0  0
   -7.4720   -0.3830    3.2330 C   0  0  1  1  0  0
   -7.1680   -1.7740    3.8300 C   0  0  1  1  0  0
   -2.1260    4.3530   -3.4670 C   0  0  0  1  0  0
   -8.5700    0.3660    3.9960 C   0  0  0  1  0  0
    1.2910   -0.3130   -2.5900 H   0  0  0  1  0  0
    2.6640   -2.1500   -3.2650 H   0  0  0  1  0  0
   -0.5020   -1.5250    0.9740 H   0  0  0  1  0  0
    0.7720   -0.3480    1.1310 H   0  0  0  1  0  0
    2.1350   -2.4950    0.4750 H   0  0  0  1  0  0
    0.7780   -3.4480   -0.0200 H   0  0  0  1  0  0
    2.0380    1.1340   -0.0560 H   0  0  0  1  0  0
    1.9270    1.7940   -1.6600 H   0  0  0  1  0  0
   -0.9850   -2.6360   -1.3150 H   0  0  0  1  0  0
   -0.2520   -1.8720   -2.7080 H   0  0  0  1  0  0
    2.9590   -4.0770   -1.1020 H   0  0  0  1  0  0
    1.6630   -3.8040   -2.2190 H   0  0  0  1  0  0
    3.3660    0.2620   -3.5470 H   0  0  0  1  0  0
    3.9680    1.1360   -2.1640 H   0  0  0  1  0  0
    0.0170    2.2430    0.0320 H   0  0  0  1  0  0
   -0.4230    1.8930   -1.6140 H   0  0  0  1  0  0
    3.1810   -0.3310    0.4540 H   0  0  0  1  0  0
    4.7520   -0.2450   -0.3370 H   0  0  0  1  0  0
    4.0430   -1.8120    0.0390 H   0  0  0  1  0  0
    4.8450   -1.6910   -4.5120 H   0  0  0  1  0  0
    6.3580   -2.0580   -3.7280 H   0  0  0  1  0  0
    5.8090    0.3650   -3.6130 H   0  0  0  1  0  0
    5.9380   -0.3250   -2.0150 H   0  0  0  1  0  0
    3.8520   -4.0170   -4.2930 H   0  0  0  1  0  0
    4.1120   -4.8870   -2.7830 H   0  0  0  1  0  0
    5.4900   -4.4090   -3.7730 H   0  0  0  1  0  0
   -3.1370    0.5640   -1.9880 H   0  0  0  1  0  0
   -2.6640   -0.9330   -2.9630 H   0  0  0  1  0  0
   -2.2230    2.0080   -0.8070 H   0  0  0  1  0  0
   -4.3970    0.9440    0.1080 H   0  0  0  1  0  0
   -5.4360    2.2450    2.0800 H   0  0  0  1  0  0
    7.3050   -3.9720   -0.2070 H   0  0  0  1  0  0
   -1.5670    4.0830    2.6100 H   0  0  0  1  0  0
   -3.6830    3.1630    3.7400 H   0  0  0  1  0  0
    8.9260   -1.3950   -0.5330 H   0  0  0  1  0  0
   -1.7030    1.0580    2.8420 H   0  0  0  1  0  0
   -1.3080    2.2210    4.1500 H   0  0  0  1  0  0
   -4.8760    1.4400   -1.6280 H   0  0  0  1  0  0
   10.1620   -4.0080    0.4490 H   0  0  0  1  0  0
    7.1340   -2.2830    2.9300 H   0  0  0  1  0  0
    9.5720   -2.9180    2.8830 H   0  0  0  1  0  0
   -5.4690   -0.1280    1.5060 H   0  0  0  1  0  0
   -6.9020    3.0200   -1.4600 H   0  0  0  1  0  0
   -4.3660   -1.3400    4.1260 H   0  0  0  1  0  0
    8.3020   -0.3290    0.9780 H   0  0  0  1  0  0
    9.0910   -0.5420    2.5760 H   0  0  0  1  0  0
   -5.7770    5.1910   -1.4000 H   0  0  0  1  0  0
   -3.1530    4.6520   -1.6040 H   0  0  0  1  0  0
   -4.7490    4.6360   -4.2360 H   0  0  0  1  0  0
   -6.2290   -2.7060    2.1090 H   0  0  0  1  0  0
   -7.7590   -0.4670    2.1830 H   0  0  0  1  0  0
   -6.9740   -1.6740    4.8990 H   0  0  0  1  0  0
   -1.3010    3.7900   -3.0270 H   0  0  0  1  0  0
   -2.3220    3.9720   -4.4680 H   0  0  0  1  0  0
   -1.8060    5.3900   -3.5610 H   0  0  0  1  0  0
   -8.1980    0.7160    4.9600 H   0  0  0  1  0  0
   -9.4480   -0.2660    4.1270 H   0  0  0  1  0  0
   -3.6780    5.1180    2.8360 H   0  0  0  1  0  0
    9.0020   -2.4170   -2.3980 H   0  0  0  1  0  0
    0.5220    1.3540    3.1460 H   0  0  0  1  0  0
   11.4700   -2.6220    1.4670 H   0  0  0  1  0  0
    8.0960   -4.4840    3.1020 H   0  0  0  1  0  0
   -6.7360    1.6550   -3.1380 H   0  0  0  1  0  0
   -2.8980   -1.5800    2.5970 H   0  0  0  1  0  0
    7.4610    1.0250    2.5810 H   0  0  0  1  0  0
   -7.7590    5.1870   -2.3730 H   0  0  0  1  0  0
   -3.8380    6.5300   -4.0730 H   0  0  0  1  0  0
   -6.2340   -4.3080    3.5550 H   0  0  0  1  0  0
   -8.8310   -2.5100    4.5000 H   0  0  0  1  0  0
   -9.6410    1.9520    3.7340 H   0  0  0  1  0  0
  1 28  1  0
  1 43  1  0
  2 41  1  0
  2 46  1  0
  3 41  2  0
  4 43  1  0
  4 47  1  0
  5 44  1  0
  5 51  1  0
  6 45  1  0
  6 55  1  0
  7 46  1  0
  7 53  1  0
  8 48  1  0
  8124  1  0
  9 49  1  0
  9125  1  0
 10 51  1  0
 10 60  1  0
 11 50  1  0
 11126  1  0
 12 52  1  0
 12127  1  0
 13 55  1  0
 13 63  1  0
 14 54  1  0
 14128  1  0
 15 56  1  0
 15129  1  0
 16 57  1  0
 16130  1  0
 17 58  1  0
 17131  1  0
 18 59  1  0
 18132  1  0
 19 61  1  0
 19133  1  0
 20 62  1  0
 20134  1  0
 21 64  1  0
 21135  1  0
 22 66  1  0
 22136  1  0
 23 24  1  0
 23 27  1  0
 23 29  1  0
 23 31  1  0
 24 25  1  0
 24 30  1  0
 24 67  1  0
 25 26  1  0
 25 34  1  0
 25 37  1  0
 26 32  1  0
 26 33  1  0
 26 68  1  0
 27 28  1  0
 27 69  1  0
 27 70  1  0
 28 35  1  0
 28 36  1  0
 29 32  1  0
 29 71  1  0
 29 72  1  0
 30 35  1  0
 30 73  1  0
 30 74  1  0
 31 36  1  0
 31 75  1  0
 31 76  1  0
 32 77  1  0
 32 78  1  0
 33 38  1  0
 33 40  1  0
 33 41  1  0
 34 39  1  0
 34 79  1  0
 34 80  1  0
 35 81  1  0
 35 82  1  0
 36 42  2  0
 37 83  1  0
 37 84  1  0
 37 85  1  0
 38 39  1  0
 38 86  1  0
 38 87  1  0
 39 88  1  0
 39 89  1  0
 40 90  1  0
 40 91  1  0
 40 92  1  0
 42 93  1  0
 42 94  1  0
 43 44  1  0
 43 95  1  0
 44 45  1  0
 44 96  1  0
 45 48  1  0
 45 97  1  0
 46 49  1  0
 46 98  1  0
 47 48  1  0
 47 50  1  0
 47 99  1  0
 48100  1  0
 49 52  1  0
 49101  1  0
 50102  1  0
 50103  1  0
 51 56  1  0
 51104  1  0
 52 54  1  0
 52105  1  0
 53 54  1  0
 53 58  1  0
 53106  1  0
 54107  1  0
 55 57  1  0
 55108  1  0
 56 59  1  0
 56109  1  0
 57 62  1  0
 57110  1  0
 58111  1  0
 58112  1  0
 59 61  1  0
 59113  1  0
 60 61  1  0
 60 65  1  0
 60114  1  0
 61115  1  0
 62 64  1  0
 62116  1  0
 63 64  1  0
 63 66  1  0
 63117  1  0
 64118  1  0
 65119  1  0
 65120  1  0
 65121  1  0
 66122  1  0
 66123  1  0
M  END
> <Name>
60208888

> <AbsoluteEnergy>
95.8637

> <ConfNumber>
1

> <IonizationIndex>
1

> <NumberOfIonizations>
1

> <NumberOfStereoisomers>
1

> <NumberOfTautomers>
1

> <OBJECTID>
9223374592363659277

> <PUBCHEM_ATOM_DEF_STEREO_COUNT>
26

> <PUBCHEM_ATOM_UDEF_STEREO_COUNT>
0

> <PUBCHEM_BONDANNOTATIONS>
28  1  6
43  1  5
52  12  6
54  14  5
56  15  5
57  16  6
59  18  5
61  19  6
46  2  6
62  20  5
64  21  6
23  29  6
24  67  5
25  37  6
26  68  5
33  40  5
47  50  5
44  5  6
51  5  6
53  58  6
45  6  5
55  6  5
60  65  5
63  66  5
48  8  6
49  9  5

> <PUBCHEM_BOND_DEF_STEREO_COUNT>
0

> <PUBCHEM_BOND_UDEF_STEREO_COUNT>
0

> <PUBCHEM_CACTVS_COMPLEXITY>
1740

> <PUBCHEM_CACTVS_HBOND_ACCEPTOR>
22

> <PUBCHEM_CACTVS_HBOND_DONOR>
13

> <PUBCHEM_CACTVS_ROTATABLE_BOND>
12

> <PUBCHEM_CACTVS_SUBSKEYS>
AAADcfB8PgAAAAAAAAAAAAAAAAAAAYAAAAA0aNEiBgAAAADAAAAAGgAACAAAD1SwgAMCCAAABgCIAgDSCAAAAAAgAAAAAAEAAAgRFBIAIQAiQAAFgAAHIAHI6PyPgAAAAAAAAADAAAYAACAAAYAAAAAAAA==

> <PUBCHEM_CACTVS_TAUTO_COUNT>
1

> <PUBCHEM_CACTVS_TPSA>
354

> <PUBCHEM_COMPONENT_COUNT>
1

> <PUBCHEM_COMPOUND_CANONICALIZED>
1

> <PUBCHEM_COMPOUND_CID>
60208888

> <PUBCHEM_COORDINATE_TYPE>
1
5
255

> <PUBCHEM_EXACT_MASS>
950.43587386

> <PUBCHEM_HEAVY_ATOM_COUNT>
66

> <PUBCHEM_ISOTOPIC_ATOM_COUNT>
0

> <PUBCHEM_IUPAC_CAS_NAME>
(1R,4S,5R,9S,10R,13S)-13-[[(2S,3R,4S,5R,6R)-5-hydroxy-6-(hydroxymethyl)-4-[[(2S,3R,4S,5S,6R)-3,4,5-trihydroxy-6-(hydroxymethyl)-2-oxanyl]oxy]-3-[[(2S,3R,4R,5R,6S)-3,4,5-trihydroxy-6-methyl-2-oxanyl]ox
y]-2-oxanyl]oxy]-5,9-dimethyl-14-methylene-5-tetracyclo[11.2.1.01,10.04,9]hexadecanecarboxylic acid [(2S,3R,4S,5S,6R)-3,4,5-trihydroxy-6-(hydroxymethyl)-2-oxanyl] ester

> <PUBCHEM_IUPAC_INCHI>
InChI=1S/C44H70O22/c1-17-12-43-10-6-22-41(3,8-5-9-42(22,4)40(58)65-38-33(57)30(54)26(50)20(14-46)61-38)23(43)7-11-44(17,16-43)66-39-35(64-36-31(55)28(52)24(48)18(2)59-36)34(27(51)21(15-47)62-39)63-37-
32(56)29(53)25(49)19(13-45)60-37/h18-39,45-57H,1,5-16H2,2-4H3/t18-,19+,20+,21+,22-,23-,24-,25+,26+,27+,28+,29-,30-,31+,32+,33+,34-,35+,36-,37-,38-,39-,41+,42+,43+,44-/m0/s1

> <PUBCHEM_IUPAC_INCHIKEY>
QSRAJVGDWKFOGU-WBXIDTKBSA-N

> <PUBCHEM_IUPAC_NAME>
[(2S,3R,4S,5S,6R)-3,4,5-trihydroxy-6-(hydroxymethyl)oxan-2-yl] (1R,4S,5R,9S,10R,13S)-13-[(2S,3R,4S,5R,6R)-5-hydroxy-6-(hydroxymethyl)-4-[(2S,3R,4S,5S,6R)-3,4,5-trihydroxy-6-(hydroxymethyl)oxan-2-yl]ox
y-3-[(2S,3R,4R,5R,6S)-3,4,5-trihydroxy-6-methyloxan-2-yl]oxyoxan-2-yl]oxy-5,9-dimethyl-14-methylidenetetracyclo[11.2.1.01,10.04,9]hexadecane-5-carboxylate

> <PUBCHEM_IUPAC_NAME_MARKUP>
[(2<I>S</I>,3<I>R</I>,4<I>S</I>,5<I>S</I>,6<I>R</I>)-3,4,5-trihydroxy-6-(hydroxymethyl)oxan-2-yl] (1<I>R</I>,4<I>S</I>,5<I>R</I>,9<I>S</I>,10<I>R</I>,13<I>S</I>)-13-[(2<I>S</I>,3<I>R</I>,4<I>S</I>,5<I
>R</I>,6<I>R</I>)-5-hydroxy-6-(hydroxymethyl)-4-[(2<I>S</I>,3<I>R</I>,4<I>S</I>,5<I>S</I>,6<I>R</I>)-3,4,5-trihydroxy-6-(hydroxymethyl)oxan-2-yl]oxy-3-[(2<I>S</I>,3<I>R</I>,4<I>R</I>,5<I>R</I>,6<I>S</
I>)-3,4,5-trihydroxy-6-methyloxan-2-yl]oxyoxan-2-yl]oxy-5,9-dimethyl-14-methylidenetetracyclo[11.2.1.0<SUP>1,10</SUP>.0<SUP>4,9</SUP>]hexadecane-5-carboxylate

> <PUBCHEM_IUPAC_OPENEYE_NAME>
[(2S,3R,4S,5S,6R)-3,4,5-trihydroxy-6-(hydroxymethyl)tetrahydropyran-2-yl] (1R,4S,5R,9S,10R,13S)-13-[(2S,3R,4S,5R,6R)-5-hydroxy-6-(hydroxymethyl)-4-[(2S,3R,4S,5S,6R)-3,4,5-trihydroxy-6-(hydroxymethyl)t
etrahydropyran-2-yl]oxy-3-[(2S,3R,4R,5R,6S)-3,4,5-trihydroxy-6-methyl-tetrahydropyran-2-yl]oxy-tetrahydropyran-2-yl]oxy-5,9-dimethyl-14-methylene-tetracyclo[11.2.1.01,10.04,9]hexadecane-5-carboxylate

> <PUBCHEM_IUPAC_SYSTEMATIC_NAME>
[(2S,3R,4S,5S,6R)-6-(hydroxymethyl)-3,4,5-tris(oxidanyl)oxan-2-yl] (1R,4S,5R,9S,10R,13S)-13-[(2S,3R,4S,5R,6R)-6-(hydroxymethyl)-4-[(2S,3R,4S,5S,6R)-6-(hydroxymethyl)-3,4,5-tris(oxidanyl)oxan-2-yl]oxy-
3-[(2S,3R,4R,5R,6S)-6-methyl-3,4,5-tris(oxidanyl)oxan-2-yl]oxy-5-oxidanyl-oxan-2-yl]oxy-5,9-dimethyl-14-methylidene-tetracyclo[11.2.1.01,10.04,9]hexadecane-5-carboxylate

> <PUBCHEM_IUPAC_TRADITIONAL_NAME>
(1R,4S,5R,9S,10R,13S)-13-[(2S,3R,4S,5R,6R)-5-hydroxy-6-methylol-4-[(2S,3R,4S,5S,6R)-3,4,5-trihydroxy-6-methylol-tetrahydropyran-2-yl]oxy-3-[(2S,3R,4R,5R,6S)-3,4,5-trihydroxy-6-methyl-tetrahydropyran-2
-yl]oxy-tetrahydropyran-2-yl]oxy-5,9-dimethyl-14-methylene-tetracyclo[11.2.1.01,10.04,9]hexadecane-5-carboxylic acid [(2S,3R,4S,5S,6R)-3,4,5-trihydroxy-6-methylol-tetrahydropyran-2-yl] ester

> <PUBCHEM_MOLECULAR_FORMULA>
C44H70O22

> <PUBCHEM_MOLECULAR_WEIGHT>
951

> <PUBCHEM_MONOISOTOPIC_WEIGHT>
950.43587386

> <PUBCHEM_OPENEYE_CAN_SMILES>
CC1C(C(C(C(O1)OC2C(C(C(OC2OC34CCC5C6(CCCC(C6CCC5(C3)CC4=C)(C)C(=O)OC7C(C(C(C(O7)CO)O)O)O)C)CO)O)OC8C(C(C(C(O8)CO)O)O)O)O)O)O

> <PUBCHEM_OPENEYE_ISO_SMILES>
C[C@H]1[C@@H]([C@H]([C@H]([C@@H](O1)O[C@@H]2[C@H]([C@@H]([C@H](O[C@H]2O[C@@]34CC[C@H]5[C@@]6(CCC[C@@]([C@H]6CC[C@]5(C3)CC4=C)(C)C(=O)O[C@H]7[C@@H]([C@H]([C@@H]([C@H](O7)CO)O)O)O)C)CO)O)O[C@H]8[C@@H]([
C@H]([C@@H]([C@H](O8)CO)O)O)O)O)O)O

> <PUBCHEM_TOTAL_CHARGE>
0

> <PUBCHEM_XLOGP3_AA>
-2.3

> <RelativeEnergy>
0

> <StereoisomerIndex>
1

> <TautomerIndex>
1

> <LibDock Warning>
no hit found

> <ErrorText>
LibDock failed

$$$$
71508173
  SciTegic09112317153D

137144  0  0  0  0            999 V2000
    5.9140    1.5750    0.6410 O   0  0  0  1  0  0
    7.3780    2.5160    2.2000 O   0  0  0  1  0  0
   -5.1940   -0.8680    1.7350 O   0  0  0  1  0  0
   -6.6780    0.7760    1.1060 O   0  0  0  1  0  0
    9.4050   -0.9790   -2.6970 O   0  0  0  1  0  0
   -6.4120   -2.6360   -0.2080 O   0  0  0  1  0  0
   -9.1360   -1.8870   -0.8990 O   0  0  0  1  0  0
   -9.4220    0.9800   -1.2860 O   0  0  0  1  0  0
    9.3090   -3.2710   -2.8560 O   0  0  0  1  0  0
   -6.9540    3.5590    0.9190 O   0  0  0  1  0  0
    8.7570   -0.7050   -5.4650 O   0  0  0  1  0  0
  -11.5360    0.4190   -0.5290 O   0  0  0  1  0  0
    9.2990   -3.3880   -6.8690 O   0  0  0  1  0  0
    7.0360   -4.4210   -4.3350 O   0  0  0  1  0  0
  -10.8090    3.7180   -1.7160 O   0  0  0  1  0  0
   11.5740   -5.1870   -3.2230 O   0  0  0  1  0  0
  -13.4410    3.5040   -2.4930 O   0  0  0  1  0  0
  -14.7720    1.9920   -0.4560 O   0  0  0  1  0  0
    3.1890    0.9240    2.7560 C   0  0  1  1  0  0
    2.4490    1.4470    1.5140 C   0  0  2  1  0  0
    4.5830    1.5680    2.5920 C   0  0  2  1  0  0
    1.1350    0.6860    1.3180 C   0  0  1  1  0  0
    4.6610    2.0120    1.1250 C   0  0  2  1  0  0
    0.2220    0.8980    2.5490 C   0  0  2  1  0  0
    3.4990    1.3210    0.4130 C   0  0  0  1  0  0
    2.3540    1.3980    3.9530 C   0  0  0  1  0  0
    5.8500    0.6960    2.7470 C   0  0  1  1  0  0
    0.9590    0.7310    3.9090 C   0  0  0  1  0  0
   -1.0430    0.0020    2.4160 C   0  0  2  1  0  0
    6.7940    1.3210    1.7120 C   0  0  1  1  0  0
    3.3020   -0.6070    2.7530 C   0  0  0  1  0  0
    0.4100    1.1690    0.0580 C   0  0  0  1  0  0
   -1.6220    0.0330    1.0000 C   0  0  0  1  0  0
   -2.1180    0.4690    3.4270 C   0  0  0  1  0  0
   -0.9670    0.5610   -0.0570 C   0  0  0  1  0  0
    6.3450    0.6410    4.1910 C   0  0  0  1  0  0
   -0.6800   -1.4680    2.6870 C   0  0  0  1  0  0
    7.9130    0.3980    1.2360 C   0  0  0  1  0  0
   -2.9900   -0.5900    0.8000 C   0  0  0  1  0  0
   -3.4460   -0.2890    3.2830 C   0  0  0  1  0  0
   -3.9980   -0.1250    1.8620 C   0  0  2  1  0  0
    8.8000    1.1450    0.2420 C   0  0  0  1  0  0
    9.6210    0.2030   -0.6410 C   0  0  2  1  0  0
   -6.0220   -0.4130    0.6850 C   0  0  2  1  0  0
    8.7470   -0.7350   -1.4750 C   0  0  0  1  0  0
   10.7040   -0.5410    0.1400 C   0  0  0  1  0  0
   -7.0720   -1.4950    0.3180 C   0  0  1  1  0  0
   -8.0800   -0.9570   -0.7240 C   0  0  2  1  0  0
   -7.5170    1.3800    0.1300 C   0  0  1  1  0  0
   -8.6470    0.3990   -0.2530 C   0  0  1  1  0  0
    8.8410   -2.0500   -3.4290 C   0  0  2  1  0  0
   -8.0440    2.6820    0.7400 C   0  0  0  1  0  0
    9.1900   -1.9470   -4.9360 C   0  0  1  1  0  0
  -10.6600    1.4930   -0.8330 C   0  0  2  1  0  0
    8.5080   -3.0920   -5.7330 C   0  0  2  1  0  0
    9.3700   -4.4200   -3.7070 C   0  0  1  1  0  0
    8.3480   -4.3710   -4.8710 C   0  0  1  1  0  0
  -11.2940    2.4000   -1.9310 C   0  0  1  1  0  0
   10.8100   -4.5350   -4.2120 C   0  0  0  1  0  0
  -12.8510    2.3440   -1.9210 C   0  0  1  1  0  0
  -12.7530    0.7890    0.1190 C   0  0  2  1  0  0
  -13.3580    2.0890   -0.4860 C   0  0  2  1  0  0
  -12.4760    0.9150    1.6220 C   0  0  0  1  0  0
    2.2160    2.5000    1.6370 H   0  0  0  1  0  0
    4.6500    2.4510    3.2150 H   0  0  0  1  0  0
    1.3420   -0.3770    1.1970 H   0  0  0  1  0  0
    4.6090    3.0900    1.0480 H   0  0  0  1  0  0
   -0.1070    1.9380    2.5140 H   0  0  0  1  0  0
    3.7040    0.2850    0.1830 H   0  0  0  1  0  0
    3.2240    1.8320   -0.4970 H   0  0  0  1  0  0
    2.8560    1.1490    4.8890 H   0  0  0  1  0  0
    2.2580    2.4860    3.9450 H   0  0  0  1  0  0
    5.6570   -0.3160    2.4230 H   0  0  0  1  0  0
    1.0800   -0.3240    4.1460 H   0  0  0  1  0  0
    0.3500    1.1430    4.7130 H   0  0  0  1  0  0
    2.3260   -1.0870    2.8110 H   0  0  0  1  0  0
    3.8920   -0.9490    3.6050 H   0  0  0  1  0  0
    3.7940   -0.9560    1.8450 H   0  0  0  1  0  0
    0.3140    2.2530    0.0680 H   0  0  0  1  0  0
    0.9910    0.9100   -0.8260 H   0  0  0  1  0  0
   -1.7510    0.3630    4.4500 H   0  0  0  1  0  0
   -2.3110    1.5330    3.2830 H   0  0  0  1  0  0
   -1.4330    0.5550   -1.0310 H   0  0  0  1  0  0
    7.2840    0.0910    4.2760 H   0  0  0  1  0  0
    5.6130    0.1510    4.8320 H   0  0  0  1  0  0
    6.5120    1.6450    4.5810 H   0  0  0  1  0  0
   -1.5000   -2.1410    2.4400 H   0  0  0  1  0  0
   -0.4330   -1.6140    3.7390 H   0  0  0  1  0  0
    0.1870   -1.7660    2.0960 H   0  0  0  1  0  0
    7.5010   -0.5040    0.7850 H   0  0  0  1  0  0
    8.5010    0.0370    2.0810 H   0  0  0  1  0  0
   -2.8770   -1.6760    0.8390 H   0  0  0  1  0  0
   -3.3760   -0.3620   -0.1950 H   0  0  0  1  0  0
   -4.1580    0.0880    4.0190 H   0  0  0  1  0  0
   -3.2870   -1.3430    3.5160 H   0  0  0  1  0  0
   -4.2490    0.9220    1.6930 H   0  0  0  1  0  0
    8.2060    1.8230   -0.3710 H   0  0  0  1  0  0
    9.4490    1.8520    0.7560 H   0  0  0  1  0  0
   10.2990    0.7670   -1.2800 H   0  0  0  1  0  0
   -5.3820   -0.1720   -0.1670 H   0  0  0  1  0  0
    7.7860   -0.2710   -1.6950 H   0  0  0  1  0  0
    8.6110   -1.6890   -0.9680 H   0  0  0  1  0  0
   11.3520    0.1630    0.6640 H   0  0  0  1  0  0
   10.2600   -1.2220    0.8630 H   0  0  0  1  0  0
   11.3290   -1.1290   -0.5340 H   0  0  0  1  0  0
   -7.6050   -1.8080    1.2180 H   0  0  0  1  0  0
   -7.5820   -0.8340   -1.6900 H   0  0  0  1  0  0
   -6.8980    1.6150   -0.7390 H   0  0  0  1  0  0
   -9.3050    0.2510    0.6050 H   0  0  0  1  0  0
    7.7600   -2.0110   -3.2900 H   0  0  0  1  0  0
   -8.4920    2.4970    1.7160 H   0  0  0  1  0  0
   -8.7580    3.1620    0.0710 H   0  0  0  1  0  0
   10.2760   -1.9770   -5.0490 H   0  0  0  1  0  0
  -10.4670    2.0320    0.0960 H   0  0  0  1  0  0
    7.5340   -2.7810   -6.1230 H   0  0  0  1  0  0
    9.1770   -5.2870   -3.0730 H   0  0  0  1  0  0
    8.4400   -5.2730   -5.4780 H   0  0  0  1  0  0
  -10.9570    2.1090   -2.9270 H   0  0  0  1  0  0
   11.2420   -3.5480   -4.3760 H   0  0  0  1  0  0
   10.8540   -5.1330   -5.1230 H   0  0  0  1  0  0
  -13.1660    1.5090   -2.5500 H   0  0  0  1  0  0
  -13.4160   -0.0630   -0.0360 H   0  0  0  1  0  0
  -13.0860    2.9450    0.1370 H   0  0  0  1  0  0
  -12.0030    0.0190    2.0260 H   0  0  0  1  0  0
  -13.4020    1.0790    2.1720 H   0  0  0  1  0  0
  -11.8160    1.7580    1.8230 H   0  0  0  1  0  0
    7.7770    2.9700    1.4440 H   0  0  0  1  0  0
   -6.0220   -3.1120    0.5420 H   0  0  0  1  0  0
   -9.5820   -1.6610   -1.7290 H   0  0  0  1  0  0
   -7.3040    4.3760    1.3050 H   0  0  0  1  0  0
    9.4150   -0.0390   -5.2080 H   0  0  0  1  0  0
    8.7710   -3.9670   -7.4420 H   0  0  0  1  0  0
    6.9320   -5.2910   -3.9150 H   0  0  0  1  0  0
   -9.8710    3.7220   -1.9620 H   0  0  0  1  0  0
   12.4820   -5.2500   -3.5580 H   0  0  0  1  0  0
  -14.3530    3.2750   -2.7300 H   0  0  0  1  0  0
  -15.0380    1.9810    0.4780 H   0  0  0  1  0  0
  1 23  1  0
  1 30  1  0
  2 30  1  0
  2127  1  0
  3 41  1  0
  3 44  1  0
  4 44  1  0
  4 49  1  0
  5 45  1  0
  5 51  1  0
  6 47  1  0
  6128  1  0
  7 48  1  0
  7129  1  0
  8 50  1  0
  8 54  1  0
  9 51  1  0
  9 56  1  0
 10 52  1  0
 10130  1  0
 11 53  1  0
 11131  1  0
 12 54  1  0
 12 61  1  0
 13 55  1  0
 13132  1  0
 14 57  1  0
 14133  1  0
 15 58  1  0
 15134  1  0
 16 59  1  0
 16135  1  0
 17 60  1  0
 17136  1  0
 18 62  1  0
 18137  1  0
 19 20  1  0
 19 21  1  0
 19 26  1  0
 19 31  1  0
 20 22  1  0
 20 25  1  0
 20 64  1  0
 21 23  1  0
 21 27  1  0
 21 65  1  0
 22 24  1  0
 22 32  1  0
 22 66  1  0
 23 25  1  0
 23 67  1  0
 24 28  1  0
 24 29  1  0
 24 68  1  0
 25 69  1  0
 25 70  1  0
 26 28  1  0
 26 71  1  0
 26 72  1  0
 27 30  1  0
 27 36  1  0
 27 73  1  0
 28 74  1  0
 28 75  1  0
 29 33  1  0
 29 34  1  0
 29 37  1  0
 30 38  1  0
 31 76  1  0
 31 77  1  0
 31 78  1  0
 32 35  1  0
 32 79  1  0
 32 80  1  0
 33 35  2  0
 33 39  1  0
 34 40  1  0
 34 81  1  0
 34 82  1  0
 35 83  1  0
 36 84  1  0
 36 85  1  0
 36 86  1  0
 37 87  1  0
 37 88  1  0
 37 89  1  0
 38 42  1  0
 38 90  1  0
 38 91  1  0
 39 41  1  0
 39 92  1  0
 39 93  1  0
 40 41  1  0
 40 94  1  0
 40 95  1  0
 41 96  1  0
 42 43  1  0
 42 97  1  0
 42 98  1  0
 43 45  1  0
 43 46  1  0
 43 99  1  0
 44 47  1  0
 44100  1  0
 45101  1  0
 45102  1  0
 46103  1  0
 46104  1  0
 46105  1  0
 47 48  1  0
 47106  1  0
 48 50  1  0
 48107  1  0
 49 50  1  0
 49 52  1  0
 49108  1  0
 50109  1  0
 51 53  1  0
 51110  1  0
 52111  1  0
 52112  1  0
 53 55  1  0
 53113  1  0
 54 58  1  0
 54114  1  0
 55 57  1  0
 55115  1  0
 56 57  1  0
 56 59  1  0
 56116  1  0
 57117  1  0
 58 60  1  0
 58118  1  0
 59119  1  0
 59120  1  0
 60 62  1  0
 60121  1  0
 61 62  1  0
 61 63  1  0
 61122  1  0
 62123  1  0
 63124  1  0
 63125  1  0
 63126  1  0
M  END
> <Name>
71508173

> <AbsoluteEnergy>
78.8924

> <ConfNumber>
1

> <IonizationIndex>
1

> <NumberOfIonizations>
1

> <NumberOfStereoisomers>
1

> <NumberOfTautomers>
1

> <OBJECTID>
9223374618133463053

> <PUBCHEM_ATOM_DEF_STEREO_COUNT>
26

> <PUBCHEM_ATOM_UDEF_STEREO_COUNT>
0

> <PUBCHEM_BONDANNOTATIONS>
53  11  6
55  13  5
57  14  6
58  15  5
60  17  5
62  18  6
19  31  5
30  2  6
20  64  6
21  65  6
22  66  5
23  67  6
24  68  6
27  36  6
29  37  5
41  3  5
44  3  5
43  46  5
49  52  5
51  5  5
56  59  5
47  6  6
61  63  5
48  7  5
50  8  6
54  8  6

> <PUBCHEM_BOND_DEF_STEREO_COUNT>
0

> <PUBCHEM_BOND_UDEF_STEREO_COUNT>
0

> <PUBCHEM_CACTVS_COMPLEXITY>
1610

> <PUBCHEM_CACTVS_HBOND_ACCEPTOR>
18

> <PUBCHEM_CACTVS_HBOND_DONOR>
11

> <PUBCHEM_CACTVS_ROTATABLE_BOND>
12

> <PUBCHEM_CACTVS_SUBSKEYS>
AAADcfB8PgAAAAAAAAAAAAAAAAAAAaIAAAA0aJECAAASAGCAAAAAGgAACAAADxSwgAMCCAAABgCAAiBCAAAAAAAgAAAACAAAAAgREAIAAQAiQAAFwAAPAAPA4PwPgAAAAAAAAADAAAQAACAAAYAADAAAAA==

> <PUBCHEM_CACTVS_TAUTO_COUNT>
-1

> <PUBCHEM_CACTVS_TPSA>
287

> <PUBCHEM_COMPONENT_COUNT>
1

> <PUBCHEM_COMPOUND_CANONICALIZED>
1

> <PUBCHEM_COMPOUND_CID>
71508173

> <PUBCHEM_COORDINATE_TYPE>
1
5
255

> <PUBCHEM_EXACT_MASS>
902.48751551

> <PUBCHEM_HEAVY_ATOM_COUNT>
63

> <PUBCHEM_ISOTOPIC_ATOM_COUNT>
0

> <PUBCHEM_IUPAC_CAS_NAME>
(2S,3R,4R,5R,6S)-2-[[(2R,3S,4R,5R,6R)-4,5-dihydroxy-2-(hydroxymethyl)-6-[[(1S,2S,4S,6R,7S,8R,9S,12S,13R,16S)-6-hydroxy-7,9,13-trimethyl-6-[(3R)-3-methyl-4-[[(2R,3R,4S,5S,6R)-3,4,5-trihydroxy-6-(hydrox
ymethyl)-2-oxanyl]oxy]butyl]-5-oxapentacyclo[10.8.0.02,9.04,8.013,18]eicos-18-en-16-yl]oxy]-3-oxanyl]oxy]-6-methyloxane-3,4,5-triol

> <PUBCHEM_IUPAC_INCHI>
InChI=1S/C45H74O18/c1-19(18-57-40-36(53)34(51)32(49)28(16-46)60-40)8-13-45(56)20(2)30-27(63-45)15-26-24-7-6-22-14-23(9-11-43(22,4)25(24)10-12-44(26,30)5)59-42-38(55)35(52)39(29(17-47)61-42)62-41-37(54
)33(50)31(48)21(3)58-41/h6,19-21,23-42,46-56H,7-18H2,1-5H3/t19-,20+,21+,23+,24-,25+,26+,27+,28-,29-,30+,31+,32-,33-,34+,35-,36-,37-,38-,39-,40-,41+,42-,43+,44+,45-/m1/s1

> <PUBCHEM_IUPAC_INCHIKEY>
RKFMVZQLJBGJKK-YGXMXTOKSA-N

> <PUBCHEM_IUPAC_NAME>
(2S,3R,4R,5R,6S)-2-[(2R,3S,4R,5R,6R)-4,5-dihydroxy-2-(hydroxymethyl)-6-[[(1S,2S,4S,6R,7S,8R,9S,12S,13R,16S)-6-hydroxy-7,9,13-trimethyl-6-[(3R)-3-methyl-4-[(2R,3R,4S,5S,6R)-3,4,5-trihydroxy-6-(hydroxym
ethyl)oxan-2-yl]oxybutyl]-5-oxapentacyclo[10.8.0.02,9.04,8.013,18]icos-18-en-16-yl]oxy]oxan-3-yl]oxy-6-methyloxane-3,4,5-triol

> <PUBCHEM_IUPAC_NAME_MARKUP>
(2<I>S</I>,3<I>R</I>,4<I>R</I>,5<I>R</I>,6<I>S</I>)-2-[(2<I>R</I>,3<I>S</I>,4<I>R</I>,5<I>R</I>,6<I>R</I>)-4,5-dihydroxy-2-(hydroxymethyl)-6-[[(1<I>S</I>,2<I>S</I>,4<I>S</I>,6<I>R</I>,7<I>S</I>,8<I>R<
/I>,9<I>S</I>,12<I>S</I>,13<I>R</I>,16<I>S</I>)-6-hydroxy-7,9,13-trimethyl-6-[(3<I>R</I>)-3-methyl-4-[(2<I>R</I>,3<I>R</I>,4<I>S</I>,5<I>S</I>,6<I>R</I>)-3,4,5-trihydroxy-6-(hydroxymethyl)oxan-2-yl]ox
ybutyl]-5-oxapentacyclo[10.8.0.0<SUP>2,9</SUP>.0<SUP>4,8</SUP>.0<SUP>13,18</SUP>]icos-18-en-16-yl]oxy]oxan-3-yl]oxy-6-methyloxane-3,4,5-triol

> <PUBCHEM_IUPAC_OPENEYE_NAME>
(2S,3R,4R,5R,6S)-2-[(2R,3S,4R,5R,6R)-4,5-dihydroxy-2-(hydroxymethyl)-6-[[(1S,2S,4S,6R,7S,8R,9S,12S,13R,16S)-6-hydroxy-7,9,13-trimethyl-6-[(3R)-3-methyl-4-[(2R,3R,4S,5S,6R)-3,4,5-trihydroxy-6-(hydroxym
ethyl)tetrahydropyran-2-yl]oxy-butyl]-5-oxapentacyclo[10.8.0.02,9.04,8.013,18]icos-18-en-16-yl]oxy]tetrahydropyran-3-yl]oxy-6-methyl-tetrahydropyran-3,4,5-triol

> <PUBCHEM_IUPAC_SYSTEMATIC_NAME>
(2S,3R,4R,5R,6S)-2-[(2R,3S,4R,5R,6R)-2-(hydroxymethyl)-6-[[(1S,2S,4S,6R,7S,8R,9S,12S,13R,16S)-6-[(3R)-4-[(2R,3R,4S,5S,6R)-6-(hydroxymethyl)-3,4,5-tris(oxidanyl)oxan-2-yl]oxy-3-methyl-butyl]-7,9,13-tri
methyl-6-oxidanyl-5-oxapentacyclo[10.8.0.02,9.04,8.013,18]icos-18-en-16-yl]oxy]-4,5-bis(oxidanyl)oxan-3-yl]oxy-6-methyl-oxane-3,4,5-triol

> <PUBCHEM_IUPAC_TRADITIONAL_NAME>
(2S,3R,4R,5R,6S)-2-[(2R,3S,4R,5R,6R)-4,5-dihydroxy-6-[[(1S,2S,4S,6R,7S,8R,9S,12S,13R,16S)-6-hydroxy-7,9,13-trimethyl-6-[(3R)-3-methyl-4-[(2R,3R,4S,5S,6R)-3,4,5-trihydroxy-6-methylol-tetrahydropyran-2-
yl]oxy-butyl]-5-oxapentacyclo[10.8.0.02,9.04,8.013,18]eicos-18-en-16-yl]oxy]-2-methylol-tetrahydropyran-3-yl]oxy-6-methyl-tetrahydropyran-3,4,5-triol

> <PUBCHEM_MOLECULAR_FORMULA>
C45H74O18

> <PUBCHEM_MOLECULAR_WEIGHT>
903.1

> <PUBCHEM_MONOISOTOPIC_WEIGHT>
902.48751551

> <PUBCHEM_OPENEYE_CAN_SMILES>
CC1C2C(CC3C2(CCC4C3CC=C5C4(CCC(C5)OC6C(C(C(C(O6)CO)OC7C(C(C(C(O7)C)O)O)O)O)O)C)C)OC1(CCC(C)COC8C(C(C(C(O8)CO)O)O)O)O

> <PUBCHEM_OPENEYE_ISO_SMILES>
C[C@H]1[C@H]2[C@H](C[C@@H]3[C@@]2(CC[C@H]4[C@H]3CC=C5[C@@]4(CC[C@@H](C5)O[C@H]6[C@@H]([C@H]([C@@H]([C@H](O6)CO)O[C@H]7[C@@H]([C@@H]([C@H]([C@@H](O7)C)O)O)O)O)O)C)C)O[C@@]1(CC[C@@H](C)CO[C@H]8[C@@H]([C
@H]([C@@H]([C@H](O8)CO)O)O)O)O

> <PUBCHEM_TOTAL_CHARGE>
0

> <PUBCHEM_XLOGP3_AA>
-0.2

> <RelativeEnergy>
0

> <StereoisomerIndex>
1

> <TautomerIndex>
1

> <LibDock Warning>
no hit found

> <ErrorText>
LibDock failed

$$$$
71581001
  SciTegic09112317153D

156165  0  0  0  0            999 V2000
   -5.1760    1.4450    0.3690 O   0  0  0  1  0  0
   -6.9020    2.8490    1.0220 O   0  0  0  1  0  0
    4.6130    0.9770   -1.5040 O   0  0  0  1  0  0
   -8.5390    1.0630    2.2610 O   0  0  0  1  0  0
    6.6600    0.2050   -2.2160 O   0  0  0  1  0  0
   -9.0350    1.1790    4.5760 O   0  0  0  1  0  0
    3.5360   -1.6650   -1.5550 O   0  0  0  1  0  0
    5.3500   -3.4300   -3.3060 O   0  0  0  1  0  0
  -10.0380   -1.6190    4.1840 O   0  0  0  1  0  0
    7.6990   -2.2290   -0.9280 O   0  0  0  1  0  0
   -6.5960   -1.1140    3.2040 O   0  0  0  1  0  0
   -8.1710   -0.9780    6.4560 O   0  0  0  1  0  0
    2.5220   -2.2560   -3.5950 O   0  0  0  1  0  0
    7.9590   -1.5020   -5.0920 O   0  0  0  1  0  0
   -7.0970    3.1160    4.2210 O   0  0  0  1  0  0
    7.4200   -4.4940   -0.6370 O   0  0  0  1  0  0
    0.8200   -4.0390   -1.9830 O   0  0  0  1  0  0
   -0.8050   -1.9070   -1.0850 O   0  0  0  1  0  0
    9.9750   -2.2330    0.7930 O   0  0  0  1  0  0
   -0.3840   -0.0580   -3.2870 O   0  0  0  1  0  0
    9.9180   -4.8000    2.4910 O   0  0  0  1  0  0
    9.8310   -6.1770   -0.7810 O   0  0  0  1  0  0
    6.5160   -6.7430    1.9420 O   0  0  0  1  0  0
   -2.4090    3.0970   -0.0040 C   0  0  1  1  0  0
   -1.7920    2.1150    1.0040 C   0  0  2  1  0  0
   -3.8040    3.2980    0.6210 C   0  0  2  1  0  0
   -0.3990    1.6470    0.5540 C   0  0  1  1  0  0
   -4.1360    1.9180    1.1940 C   0  0  2  1  0  0
   -2.8790    1.0450    1.1100 C   0  0  0  1  0  0
    0.5320    2.8740    0.4130 C   0  0  2  1  0  0
   -4.9890    3.6470   -0.3080 C   0  0  1  1  0  0
   -1.5410    4.3590   -0.0070 C   0  0  0  1  0  0
   -6.0020    2.5210   -0.0280 C   0  0  1  1  0  0
   -0.1100    3.9950   -0.4460 C   0  0  0  1  0  0
    1.9250    2.4150   -0.1100 C   0  0  2  1  0  0
   -2.4980    2.4650   -1.4020 C   0  0  0  1  0  0
    0.1780    0.6390    1.5610 C   0  0  0  1  0  0
    2.4770    1.2800    0.7500 C   0  0  0  1  0  0
   -6.8890    2.1110   -1.2130 C   0  0  0  1  0  0
    2.9440    3.5760   -0.0700 C   0  0  0  1  0  0
   -5.4940    5.0710   -0.0860 C   0  0  0  1  0  0
    1.6760    0.4600    1.4660 C   0  0  0  1  0  0
   -8.2450    2.7410    0.6060 C   0  0  1  1  0  0
    1.7810    1.8940   -1.5500 C   0  0  0  1  0  0
   -8.1930    1.7110   -0.5230 C   0  0  0  1  0  0
    3.9840    1.0830    0.8150 C   0  0  0  1  0  0
    4.3450    3.2120   -0.6020 C   0  0  0  1  0  0
    4.7710    1.7510   -0.3270 C   0  0  2  1  0  0
   -9.0860    2.2720    1.7850 C   0  0  0  1  0  0
   -8.6980    4.1030    0.0880 C   0  0  0  1  0  0
    5.4550   -0.1580   -1.5390 C   0  0  2  1  0  0
   -9.2720    0.5080    3.3370 C   0  0  2  1  0  0
    4.7510   -1.3610   -2.2200 C   0  0  1  1  0  0
    5.6630   -2.6150   -2.1900 C   0  0  2  1  0  0
   -8.9930   -1.0160    3.4440 C   0  0  1  1  0  0
    7.3870   -0.8340   -2.8760 C   0  0  1  1  0  0
    7.1630   -2.2280   -2.2420 C   0  0  1  1  0  0
   -7.6420   -1.3440    4.1290 C   0  0  2  1  0  0
   -7.7420    1.0220    5.1660 C   0  0  1  1  0  0
   -7.3960   -0.4740    5.3820 C   0  0  1  1  0  0
    6.9830   -0.8020   -4.3530 C   0  0  0  1  0  0
    2.7540   -2.6290   -2.2360 C   0  0  2  1  0  0
   -6.6880    1.7710    4.3410 C   0  0  0  1  0  0
    1.4180   -2.8510   -1.4850 C   0  0  1  1  0  0
    8.3720   -3.4300   -0.6030 C   0  0  2  1  0  0
    0.4670   -1.6420   -1.6580 C   0  0  1  1  0  0
    1.7320   -1.0840   -3.7990 C   0  0  2  1  0  0
    9.0720   -3.3270    0.7750 C   0  0  1  1  0  0
    0.3400   -1.2690   -3.1520 C   0  0  2  1  0  0
    9.8610   -4.6270    1.0860 C   0  0  2  1  0  0
    7.6790   -5.6420    0.1750 C   0  0  1  1  0  0
    9.1880   -5.8690    0.4430 C   0  0  1  1  0  0
    1.6580   -0.8640   -5.3140 C   0  0  0  1  0  0
    6.8860   -5.4660    1.4740 C   0  0  0  1  0  0
   -1.6940    2.5990    1.9680 H   0  0  0  1  0  0
   -3.7390    3.9990    1.4430 H   0  0  0  1  0  0
   -0.4840    1.1490   -0.4130 H   0  0  0  1  0  0
   -4.5030    2.0080    2.2060 H   0  0  0  1  0  0
   -2.8710    0.4040    0.2390 H   0  0  0  1  0  0
   -2.7580    0.4190    1.9820 H   0  0  0  1  0  0
    0.6730    3.2910    1.4120 H   0  0  0  1  0  0
   -4.6880    3.5770   -1.3410 H   0  0  0  1  0  0
   -1.9630    5.1080   -0.6750 H   0  0  0  1  0  0
   -1.5150    4.8070    0.9890 H   0  0  0  1  0  0
    0.4970    4.9000   -0.3980 H   0  0  0  1  0  0
   -0.1250    3.7010   -1.4940 H   0  0  0  1  0  0
   -1.5320    2.0870   -1.7400 H   0  0  0  1  0  0
   -2.8440    3.1970   -2.1340 H   0  0  0  1  0  0
   -3.2020    1.6340   -1.4050 H   0  0  0  1  0  0
   -0.3100   -0.3290    1.4410 H   0  0  0  1  0  0
   -0.0450    0.9660    2.5770 H   0  0  0  1  0  0
   -6.4780    1.3180   -1.8190 H   0  0  0  1  0  0
   -7.0640    2.9570   -1.8610 H   0  0  0  1  0  0
    3.0390    3.9210    0.9580 H   0  0  0  1  0  0
    2.5820    4.4340   -0.6370 H   0  0  0  1  0  0
   -6.2840    5.3350   -0.7890 H   0  0  0  1  0  0
   -4.6850    5.7900   -0.2080 H   0  0  0  1  0  0
   -5.8930    5.1850    0.9220 H   0  0  0  1  0  0
    2.1220   -0.3660    2.0040 H   0  0  0  1  0  0
    2.3180    2.5190   -2.2630 H   0  0  0  1  0  0
    0.7340    1.8730   -1.8480 H   0  0  0  1  0  0
    2.1720    0.8810   -1.6330 H   0  0  0  1  0  0
   -9.0470    1.7570   -1.1840 H   0  0  0  1  0  0
   -8.1180    0.7050   -0.1340 H   0  0  0  1  0  0
    4.3310    1.5020    1.7600 H   0  0  0  1  0  0
    4.2190    0.0190    0.8620 H   0  0  0  1  0  0
    4.4020    3.4400   -1.6670 H   0  0  0  1  0  0
    5.0660    3.8850   -0.1340 H   0  0  0  1  0  0
    5.8370    1.7210   -0.1020 H   0  0  0  1  0  0
  -10.1130    2.0800    1.4730 H   0  0  0  1  0  0
   -9.0570    3.0010    2.5930 H   0  0  0  1  0  0
   -8.1610    4.3940   -0.8160 H   0  0  0  1  0  0
   -8.5280    4.8770    0.8370 H   0  0  0  1  0  0
   -9.7630    4.0930   -0.1460 H   0  0  0  1  0  0
    5.7150   -0.4090   -0.5110 H   0  0  0  1  0  0
  -10.3190    0.6810    3.0830 H   0  0  0  1  0  0
    4.4900   -1.0820   -3.2430 H   0  0  0  1  0  0
    5.4660   -3.2330   -1.3110 H   0  0  0  1  0  0
   -9.0450   -1.4830    2.4600 H   0  0  0  1  0  0
    8.4420   -0.5570   -2.8200 H   0  0  0  1  0  0
    7.7460   -2.9760   -2.7840 H   0  0  0  1  0  0
   -7.5760   -2.4070    4.3720 H   0  0  0  1  0  0
   -7.7900    1.5270    6.1330 H   0  0  0  1  0  0
   -6.3620   -0.5660    5.7130 H   0  0  0  1  0  0
    6.9490    0.2220   -4.7220 H   0  0  0  1  0  0
    6.0250   -1.3010   -4.5010 H   0  0  0  1  0  0
    3.3460   -3.5450   -2.2490 H   0  0  0  1  0  0
   -6.6090    1.3490    3.3410 H   0  0  0  1  0  0
   -5.7210    1.7580    4.8450 H   0  0  0  1  0  0
    1.6050   -3.0300   -0.4250 H   0  0  0  1  0  0
    9.1070   -3.6180   -1.3860 H   0  0  0  1  0  0
    0.8810   -0.7960   -1.1070 H   0  0  0  1  0  0
    2.2560   -0.2430   -3.3450 H   0  0  0  1  0  0
    8.3200   -3.1280    1.5400 H   0  0  0  1  0  0
   -0.2170   -2.0380   -3.6870 H   0  0  0  1  0  0
   10.8990   -4.5530    0.7570 H   0  0  0  1  0  0
    7.2550   -6.4990   -0.3500 H   0  0  0  1  0  0
    9.3210   -6.7570    1.0640 H   0  0  0  1  0  0
    2.6580   -0.7980   -5.7430 H   0  0  0  1  0  0
    1.1160   -1.6760   -5.7960 H   0  0  0  1  0  0
    1.1370    0.0660   -5.5420 H   0  0  0  1  0  0
    5.9760   -4.8930    1.2960 H   0  0  0  1  0  0
    7.5000   -4.9910    2.2400 H   0  0  0  1  0  0
    5.8120   -4.2740   -3.1820 H   0  0  0  1  0  0
  -10.8460   -1.5450    3.6510 H   0  0  0  1  0  0
   -5.7850   -1.4710    3.5960 H   0  0  0  1  0  0
   -7.8720   -0.5280    7.2610 H   0  0  0  1  0  0
    7.6890   -1.4720   -6.0230 H   0  0  0  1  0  0
   -6.3970    3.5860    3.7420 H   0  0  0  1  0  0
    1.3760   -4.7810   -1.6990 H   0  0  0  1  0  0
   -0.6680   -2.0320   -0.1330 H   0  0  0  1  0  0
   10.3750   -2.2060    1.6770 H   0  0  0  1  0  0
   -0.7380   -0.0340   -4.1890 H   0  0  0  1  0  0
   10.5420   -5.5220    2.6650 H   0  0  0  1  0  0
    9.4810   -7.0280   -1.0830 H   0  0  0  1  0  0
    6.0140   -6.6150    2.7620 H   0  0  0  1  0  0
  1 28  1  0
  1 33  1  0
  2 33  1  0
  2 43  1  0
  3 48  1  0
  3 51  1  0
  4 49  1  0
  4 52  1  0
  5 51  1  0
  5 56  1  0
  6 52  1  0
  6 59  1  0
  7 53  1  0
  7 62  1  0
  8 54  1  0
  8144  1  0
  9 55  1  0
  9145  1  0
 10 57  1  0
 10 65  1  0
 11 58  1  0
 11146  1  0
 12 60  1  0
 12147  1  0
 13 62  1  0
 13 67  1  0
 14 61  1  0
 14148  1  0
 15 63  1  0
 15149  1  0
 16 65  1  0
 16 71  1  0
 17 64  1  0
 17150  1  0
 18 66  1  0
 18151  1  0
 19 68  1  0
 19152  1  0
 20 69  1  0
 20153  1  0
 21 70  1  0
 21154  1  0
 22 72  1  0
 22155  1  0
 23 74  1  0
 23156  1  0
 24 25  1  0
 24 26  1  0
 24 32  1  0
 24 36  1  0
 25 27  1  0
 25 29  1  0
 25 75  1  0
 26 28  1  0
 26 31  1  0
 26 76  1  0
 27 30  1  0
 27 37  1  0
 27 77  1  0
 28 29  1  0
 28 78  1  0
 29 79  1  0
 29 80  1  0
 30 34  1  0
 30 35  1  0
 30 81  1  0
 31 33  1  0
 31 41  1  0
 31 82  1  0
 32 34  1  0
 32 83  1  0
 32 84  1  0
 33 39  1  0
 34 85  1  0
 34 86  1  0
 35 38  1  0
 35 40  1  0
 35 44  1  0
 36 87  1  0
 36 88  1  0
 36 89  1  0
 37 42  1  0
 37 90  1  0
 37 91  1  0
 38 42  2  0
 38 46  1  0
 39 45  1  0
 39 92  1  0
 39 93  1  0
 40 47  1  0
 40 94  1  0
 40 95  1  0
 41 96  1  0
 41 97  1  0
 41 98  1  0
 42 99  1  0
 43 45  1  0
 43 49  1  0
 43 50  1  0
 44100  1  0
 44101  1  0
 44102  1  0
 45103  1  0
 45104  1  0
 46 48  1  0
 46105  1  0
 46106  1  0
 47 48  1  0
 47107  1  0
 47108  1  0
 48109  1  0
 49110  1  0
 49111  1  0
 50112  1  0
 50113  1  0
 50114  1  0
 51 53  1  0
 51115  1  0
 52 55  1  0
 52116  1  0
 53 54  1  0
 53117  1  0
 54 57  1  0
 54118  1  0
 55 58  1  0
 55119  1  0
 56 57  1  0
 56 61  1  0
 56120  1  0
 57121  1  0
 58 60  1  0
 58122  1  0
 59 60  1  0
 59 63  1  0
 59123  1  0
 60124  1  0
 61125  1  0
 61126  1  0
 62 64  1  0
 62127  1  0
 63128  1  0
 63129  1  0
 64 66  1  0
 64130  1  0
 65 68  1  0
 65131  1  0
 66 69  1  0
 66132  1  0
 67 69  1  0
 67 73  1  0
 67133  1  0
 68 70  1  0
 68134  1  0
 69135  1  0
 70 72  1  0
 70136  1  0
 71 72  1  0
 71 74  1  0
 71137  1  0
 72138  1  0
 73139  1  0
 73140  1  0
 73141  1  0
 74142  1  0
 74143  1  0
M  END
> <Name>
71581001

> <AbsoluteEnergy>
99.9622

> <ConfNumber>
1

> <IonizationIndex>
1

> <NumberOfIonizations>
1

> <NumberOfStereoisomers>
1

> <NumberOfTautomers>
1

> <OBJECTID>
9223374622428430349

> <PUBCHEM_ATOM_DEF_STEREO_COUNT>
31

> <PUBCHEM_ATOM_UDEF_STEREO_COUNT>
0

> <PUBCHEM_BONDANNOTATIONS>
33  1  5
57  10  6
65  10  5
58  11  6
60  12  5
64  17  5
66  18  5
68  19  6
69  20  6
70  21  5
72  22  6
24  36  5
25  75  6
26  76  6
27  77  5
28  78  6
48  3  5
51  3  5
30  81  6
31  41  6
35  44  5
52  4  6
43  50  6
56  61  5
59  63  6
67  73  5
53  7  6
62  7  6
71  74  5
54  8  5
55  9  5

> <PUBCHEM_BOND_DEF_STEREO_COUNT>
0

> <PUBCHEM_BOND_UDEF_STEREO_COUNT>
0

> <PUBCHEM_CACTVS_COMPLEXITY>
1990

> <PUBCHEM_CACTVS_HBOND_ACCEPTOR>
23

> <PUBCHEM_CACTVS_HBOND_DONOR>
13

> <PUBCHEM_CACTVS_ROTATABLE_BOND>
12

> <PUBCHEM_CACTVS_SUBSKEYS>
AAADcfB8PgAAAAAAAAAAAAAAAAAAAaJEAAA0aJEiAAASAGCAAAAAGgAACAAAD1SwgAMCCAAABgCAAiBCAAAAAAAgAAAACAAAAAgREAIAAQAiQAAFwAAPAAPA4PwPgAAAAAAAAADAAAQAACAAAYAADAAAAA==

> <PUBCHEM_CACTVS_TAUTO_COUNT>
-1

> <PUBCHEM_CACTVS_TPSA>
355

> <PUBCHEM_COMPONENT_COUNT>
1

> <PUBCHEM_COMPOUND_CANONICALIZED>
1

> <PUBCHEM_COMPOUND_CID>
71581001

> <PUBCHEM_COORDINATE_TYPE>
1
5
255

> <PUBCHEM_EXACT_MASS>
1062.52468886

> <PUBCHEM_HEAVY_ATOM_COUNT>
74

> <PUBCHEM_ISOTOPIC_ATOM_COUNT>
0

> <PUBCHEM_IUPAC_CAS_NAME>
(2S,3R,4R,5R,6S)-2-[[(2R,3R,4S,5S,6R)-4-hydroxy-6-(hydroxymethyl)-2-[[(1S,2S,4S,5'S,6S,7S,8R,9S,12S,13R,16S)-5',7,9,13-tetramethyl-5'-[[(2S,3R,4S,5S,6R)-3,4,5-trihydroxy-6-(hydroxymethyl)-2-oxanyl]oxy
methyl]-16-spiro[5-oxapentacyclo[10.8.0.02,9.04,8.013,18]eicos-18-ene-6,2'-oxolane]yl]oxy]-5-[[(2S,3R,4S,5S,6R)-3,4,5-trihydroxy-6-(hydroxymethyl)-2-oxanyl]oxy]-3-oxanyl]oxy]-6-methyloxane-3,4,5-triol

> <PUBCHEM_IUPAC_INCHI>
InChI=1S/C51H82O23/c1-20-31-27(73-51(20)13-12-48(3,74-51)19-65-44-38(61)36(59)33(56)28(16-52)68-44)15-26-24-7-6-22-14-23(8-10-49(22,4)25(24)9-11-50(26,31)5)67-47-43(72-45-39(62)35(58)32(55)21(2)66-45)
41(64)42(30(18-54)70-47)71-46-40(63)37(60)34(57)29(17-53)69-46/h6,20-21,23-47,52-64H,7-19H2,1-5H3/t20-,21-,23-,24+,25-,26-,27-,28+,29+,30+,31-,32-,33+,34+,35+,36-,37-,38+,39+,40+,41-,42+,43+,44+,45-,4
6-,47+,48-,49-,50-,51-/m0/s1

> <PUBCHEM_IUPAC_INCHIKEY>
XNKSKPFVXMYCKU-QTPGKRPGSA-N

> <PUBCHEM_IUPAC_NAME>
(2S,3R,4R,5R,6S)-2-[(2R,3R,4S,5S,6R)-4-hydroxy-6-(hydroxymethyl)-2-[(1S,2S,4S,5'S,6S,7S,8R,9S,12S,13R,16S)-5',7,9,13-tetramethyl-5'-[[(2S,3R,4S,5S,6R)-3,4,5-trihydroxy-6-(hydroxymethyl)oxan-2-yl]oxyme
thyl]spiro[5-oxapentacyclo[10.8.0.02,9.04,8.013,18]icos-18-ene-6,2'-oxolane]-16-yl]oxy-5-[(2S,3R,4S,5S,6R)-3,4,5-trihydroxy-6-(hydroxymethyl)oxan-2-yl]oxyoxan-3-yl]oxy-6-methyloxane-3,4,5-triol

> <PUBCHEM_IUPAC_NAME_MARKUP>
(2<I>S</I>,3<I>R</I>,4<I>R</I>,5<I>R</I>,6<I>S</I>)-2-[(2<I>R</I>,3<I>R</I>,4<I>S</I>,5<I>S</I>,6<I>R</I>)-4-hydroxy-6-(hydroxymethyl)-2-[(1<I>S</I>,2<I>S</I>,4<I>S</I>,5&apos;<I>S</I>,6<I>S</I>,7<I>S
</I>,8<I>R</I>,9<I>S</I>,12<I>S</I>,13<I>R</I>,16<I>S</I>)-5&apos;,7,9,13-tetramethyl-5&apos;-[[(2<I>S</I>,3<I>R</I>,4<I>S</I>,5<I>S</I>,6<I>R</I>)-3,4,5-trihydroxy-6-(hydroxymethyl)oxan-2-yl]oxymethy
l]spiro[5-oxapentacyclo[10.8.0.0<SUP>2,9</SUP>.0<SUP>4,8</SUP>.0<SUP>13,18</SUP>]icos-18-ene-6,2&apos;-oxolane]-16-yl]oxy-5-[(2<I>S</I>,3<I>R</I>,4<I>S</I>,5<I>S</I>,6<I>R</I>)-3,4,5-trihydroxy-6-(hyd
roxymethyl)oxan-2-yl]oxyoxan-3-yl]oxy-6-methyloxane-3,4,5-triol

> <PUBCHEM_IUPAC_OPENEYE_NAME>
(2S,3R,4R,5R,6S)-2-[(2R,3R,4S,5S,6R)-4-hydroxy-6-(hydroxymethyl)-2-[(1S,2S,4S,5'S,6S,7S,8R,9S,12S,13R,16S)-5',7,9,13-tetramethyl-5'-[[(2S,3R,4S,5S,6R)-3,4,5-trihydroxy-6-(hydroxymethyl)tetrahydropyran
-2-yl]oxymethyl]spiro[5-oxapentacyclo[10.8.0.02,9.04,8.013,18]icos-18-ene-6,2'-tetrahydrofuran]-16-yl]oxy-5-[(2S,3R,4S,5S,6R)-3,4,5-trihydroxy-6-(hydroxymethyl)tetrahydropyran-2-yl]oxy-tetrahydropyran
-3-yl]oxy-6-methyl-tetrahydropyran-3,4,5-triol

> <PUBCHEM_IUPAC_SYSTEMATIC_NAME>
(2S,3R,4R,5R,6S)-2-[(2R,3R,4S,5S,6R)-6-(hydroxymethyl)-5-[(2S,3R,4S,5S,6R)-6-(hydroxymethyl)-3,4,5-tris(oxidanyl)oxan-2-yl]oxy-2-[(1S,2S,4S,5'S,6S,7S,8R,9S,12S,13R,16S)-5'-[[(2S,3R,4S,5S,6R)-6-(hydrox
ymethyl)-3,4,5-tris(oxidanyl)oxan-2-yl]oxymethyl]-5',7,9,13-tetramethyl-spiro[5-oxapentacyclo[10.8.0.02,9.04,8.013,18]icos-18-ene-6,2'-oxolane]-16-yl]oxy-4-oxidanyl-oxan-3-yl]oxy-6-methyl-oxane-3,4,5-
triol

> <PUBCHEM_IUPAC_TRADITIONAL_NAME>
(2S,3R,4R,5R,6S)-2-[(2R,3R,4S,5S,6R)-4-hydroxy-6-methylol-2-[(1S,2S,4S,5'S,6S,7S,8R,9S,12S,13R,16S)-5',7,9,13-tetramethyl-5'-[[(2S,3R,4S,5S,6R)-3,4,5-trihydroxy-6-methylol-tetrahydropyran-2-yl]oxymeth
yl]spiro[5-oxapentacyclo[10.8.0.02,9.04,8.013,18]eicos-18-ene-6,2'-tetrahydrofuran]-16-yl]oxy-5-[(2S,3R,4S,5S,6R)-3,4,5-trihydroxy-6-methylol-tetrahydropyran-2-yl]oxy-tetrahydropyran-3-yl]oxy-6-methyl
-tetrahydropyran-3,4,5-triol

> <PUBCHEM_MOLECULAR_FORMULA>
C51H82O23

> <PUBCHEM_MOLECULAR_WEIGHT>
1063.2

> <PUBCHEM_MONOISOTOPIC_WEIGHT>
1062.52468886

> <PUBCHEM_OPENEYE_CAN_SMILES>
CC1C2C(CC3C2(CCC4C3CC=C5C4(CCC(C5)OC6C(C(C(C(O6)CO)OC7C(C(C(C(O7)CO)O)O)O)O)OC8C(C(C(C(O8)C)O)O)O)C)C)OC19CCC(O9)(C)COC1C(C(C(C(O1)CO)O)O)O

> <PUBCHEM_OPENEYE_ISO_SMILES>
C[C@H]1[C@H]2[C@H](C[C@@H]3[C@@]2(CC[C@H]4[C@H]3CC=C5[C@@]4(CC[C@@H](C5)O[C@H]6[C@@H]([C@H]([C@@H]([C@H](O6)CO)O[C@H]7[C@@H]([C@H]([C@@H]([C@H](O7)CO)O)O)O)O)O[C@H]8[C@@H]([C@@H]([C@H]([C@@H](O8)C)O)O
)O)C)C)O[C@]19CC[C@@](O9)(C)CO[C@H]1[C@@H]([C@H]([C@@H]([C@H](O1)CO)O)O)O

> <PUBCHEM_TOTAL_CHARGE>
0

> <PUBCHEM_XLOGP3_AA>
-2

> <RelativeEnergy>
0

> <StereoisomerIndex>
1

> <TautomerIndex>
1

> <LibDock Warning>
no hit found

> <ErrorText>
LibDock failed

$$$$
71581002
  SciTegic09112317153D

177187  0  0  0  0            999 V2000
   -7.3580   -0.7860   -0.1210 O   0  0  0  1  0  0
   -9.4550   -1.4380   -0.8590 O   0  0  0  1  0  0
    2.3600   -0.7140   -2.3830 O   0  0  0  1  0  0
  -10.9980    0.4750    0.3050 O   0  0  0  1  0  0
    4.6200   -0.0420   -2.6250 O   0  0  0  1  0  0
  -10.1660    2.5400   -0.5030 O   0  0  0  1  0  0
    4.3180    0.8940    0.2070 O   0  0  0  1  0  0
    3.5730   -2.6060   -0.2960 O   0  0  0  1  0  0
  -12.7200    2.6010   -2.0690 O   0  0  0  1  0  0
    6.6830   -0.7850   -0.5950 O   0  0  0  1  0  0
  -13.1650    2.2850    1.5030 O   0  0  0  1  0  0
  -11.8540    5.0060   -0.4810 O   0  0  0  1  0  0
    2.7590    1.5660    1.7620 O   0  0  0  1  0  0
    5.3920   -3.4890   -3.4420 O   0  0  0  1  0  0
   -8.8370    2.0920    1.8380 O   0  0  0  1  0  0
    7.0910   -1.8100    1.4250 O   0  0  0  1  0  0
    6.4600    1.5070    1.9710 O   0  0  0  1  0  0
    5.5740    1.0230    4.5260 O   0  0  0  1  0  0
    9.5280   -0.3080   -0.8610 O   0  0  0  1  0  0
    3.0580    2.6700    5.2570 O   0  0  0  1  0  0
   10.9410   -0.3080    1.6790 O   0  0  0  1  0  0
   10.0720   -2.4690    3.4200 O   0  0  0  1  0  0
    6.1240   -3.8230    3.1490 O   0  0  0  1  0  0
   10.4610    1.8670    1.0990 O   0  0  0  1  0  0
   11.2210    0.5480    4.4320 O   0  0  0  1  0  0
   11.8280    3.3800    4.7050 O   0  0  0  1  0  0
   10.2300    5.0220    2.9160 O   0  0  0  1  0  0
    9.2270    3.2690   -0.8460 O   0  0  0  1  0  0
   -5.0380   -1.8360   -2.1320 C   0  0  1  1  0  0
   -4.6020   -0.3690   -2.2500 C   0  0  2  1  0  0
   -6.5690   -1.6700   -2.1150 C   0  0  2  1  0  0
   -3.0740   -0.2260   -2.1770 C   0  0  1  1  0  0
   -6.7780   -0.3690   -1.3340 C   0  0  2  1  0  0
   -5.4120    0.2950   -1.1350 C   0  0  0  1  0  0
   -2.4290   -1.0380   -3.3250 C   0  0  2  1  0  0
   -7.4220   -2.7270   -1.3740 C   0  0  1  1  0  0
   -4.5040   -2.5740   -3.3630 C   0  0  0  1  0  0
   -8.2090   -1.8910   -0.3480 C   0  0  1  1  0  0
   -2.9670   -2.4900   -3.3840 C   0  0  0  1  0  0
   -0.8780   -0.9550   -3.2160 C   0  0  2  1  0  0
   -4.5190   -2.4580   -0.8260 C   0  0  0  1  0  0
   -2.6690    1.2550   -2.2620 C   0  0  0  1  0  0
   -0.4210    0.4980   -3.1140 C   0  0  0  1  0  0
   -8.5420   -2.5960    0.9750 C   0  0  0  1  0  0
   -0.1990   -1.5790   -4.4550 C   0  0  0  1  0  0
   -8.2600   -3.5680   -2.3340 C   0  0  0  1  0  0
   -1.2220    1.4780   -2.6420 C   0  0  0  1  0  0
  -10.5280   -1.8310   -0.0300 C   0  0  1  1  0  0
   -0.4190   -1.6880   -1.9450 C   0  0  0  1  0  0
   -9.8850   -1.9740    1.3490 C   0  0  0  1  0  0
    0.9830    0.8540   -3.5800 C   0  0  0  1  0  0
    1.3430   -1.5640   -4.4140 C   0  0  0  1  0  0
    1.9500   -0.3430   -3.6850 C   0  0  2  1  0  0
  -11.5970   -0.7470   -0.0670 C   0  0  0  1  0  0
  -11.0560   -3.1720   -0.5330 C   0  0  0  1  0  0
    3.4060    0.0920   -1.8780 C   0  0  2  1  0  0
  -11.0920    1.4660   -0.6960 C   0  0  2  1  0  0
    3.6250   -0.1990   -0.3690 C   0  0  1  1  0  0
    4.4280   -1.4950   -0.1040 C   0  0  2  1  0  0
  -12.5520    1.9810   -0.8060 C   0  0  1  1  0  0
    5.3140   -1.2890   -2.5230 C   0  0  1  1  0  0
    5.6440   -1.6330   -1.0490 C   0  0  1  1  0  0
  -12.9320    2.9930    0.3000 C   0  0  2  1  0  0
  -10.3980    3.4100    0.6070 C   0  0  1  1  0  0
  -11.8160    4.0350    0.5480 C   0  0  1  1  0  0
    4.5280   -2.3930   -3.2420 C   0  0  0  1  0  0
    4.0770    1.0380    1.5940 C   0  0  2  1  0  0
  -10.1150    2.6780    1.9250 C   0  0  0  1  0  0
    5.1410    1.9430    2.2680 C   0  0  1  1  0  0
    7.6610   -1.4630    0.1710 C   0  0  2  1  0  0
    4.8900    2.0350    3.8010 C   0  0  1  1  0  0
    2.5230    2.3770    2.9150 C   0  0  2  1  0  0
    8.9010   -0.5580    0.3880 C   0  0  1  1  0  0
    3.3770    1.8990    4.1120 C   0  0  2  1  0  0
    9.9140   -1.2260    1.3450 C   0  0  2  1  0  0
    7.9450   -2.5460    2.2920 C   0  0  1  1  0  0
    9.1910   -1.6930    2.6270 C   0  0  1  1  0  0
    1.0130    2.3370    3.1690 C   0  0  0  1  0  0
    7.1200   -2.9030    3.5320 C   0  0  0  1  0  0
   10.4480    0.9250    2.1660 C   0  0  2  1  0  0
   11.3280    1.4390    3.3330 C   0  0  1  1  0  0
   10.8940    2.8560    3.7740 C   0  0  2  1  0  0
    9.9460    3.1520    1.4240 C   0  0  1  1  0  0
   10.8050    3.7830    2.5430 C   0  0  1  1  0  0
    9.9550    3.9770    0.1320 C   0  0  0  1  0  0
   -4.9370    0.0350   -3.1990 H   0  0  0  1  0  0
   -6.9340   -1.5220   -3.1240 H   0  0  0  1  0  0
   -2.7230   -0.6180   -1.2220 H   0  0  0  1  0  0
   -7.4730    0.2750   -1.8550 H   0  0  0  1  0  0
   -4.9780    0.0770   -0.1670 H   0  0  0  1  0  0
   -5.4580    1.3690   -1.2430 H   0  0  0  1  0  0
   -2.7220   -0.5610   -4.2630 H   0  0  0  1  0  0
   -6.7830   -3.4070   -0.8330 H   0  0  0  1  0  0
   -4.8270   -3.6150   -3.3490 H   0  0  0  1  0  0
   -4.9090   -2.1340   -4.2750 H   0  0  0  1  0  0
   -2.6150   -2.9840   -4.2890 H   0  0  0  1  0  0
   -2.5690   -3.0700   -2.5540 H   0  0  0  1  0  0
   -3.4400   -2.3460   -0.7230 H   0  0  0  1  0  0
   -4.7460   -3.5250   -0.7910 H   0  0  0  1  0  0
   -4.9880   -1.9900    0.0390 H   0  0  0  1  0  0
   -2.8720    1.7500   -1.3130 H   0  0  0  1  0  0
   -3.2820    1.7610   -3.0070 H   0  0  0  1  0  0
   -7.7930   -2.4710    1.7460 H   0  0  0  1  0  0
   -8.6630   -3.6580    0.8140 H   0  0  0  1  0  0
   -0.5290   -1.0370   -5.3430 H   0  0  0  1  0  0
   -0.5230   -2.6080   -4.6030 H   0  0  0  1  0  0
   -8.8060   -4.3550   -1.8140 H   0  0  0  1  0  0
   -7.6270   -4.0420   -3.0840 H   0  0  0  1  0  0
   -8.9880   -2.9470   -2.8560 H   0  0  0  1  0  0
   -0.8200    2.4770   -2.5350 H   0  0  0  1  0  0
    0.1520   -1.0360   -1.2840 H   0  0  0  1  0  0
    0.2110   -2.5410   -2.1980 H   0  0  0  1  0  0
   -1.2760   -2.0630   -1.3860 H   0  0  0  1  0  0
  -10.4570   -2.5920    2.0260 H   0  0  0  1  0  0
   -9.7360   -1.0090    1.8150 H   0  0  0  1  0  0
    0.9000    1.3140   -4.5660 H   0  0  0  1  0  0
    1.4100    1.6220   -2.9340 H   0  0  0  1  0  0
    1.7030   -2.4950   -3.9750 H   0  0  0  1  0  0
    1.7060   -1.5820   -5.4420 H   0  0  0  1  0  0
    2.8590   -0.0310   -4.2010 H   0  0  0  1  0  0
  -12.3920   -0.9670    0.6480 H   0  0  0  1  0  0
  -11.9990   -0.6370   -1.0720 H   0  0  0  1  0  0
  -10.3210   -3.9680   -0.4150 H   0  0  0  1  0  0
  -11.3150   -3.1120   -1.5900 H   0  0  0  1  0  0
  -11.9530   -3.4610    0.0130 H   0  0  0  1  0  0
    3.0620    1.1180   -2.0200 H   0  0  0  1  0  0
  -10.7980    0.9630   -1.6180 H   0  0  0  1  0  0
    2.6690   -0.2260    0.1560 H   0  0  0  1  0  0
    4.7390   -1.5540    0.9430 H   0  0  0  1  0  0
  -13.2510    1.1430   -0.8150 H   0  0  0  1  0  0
    6.2420   -1.1580   -3.0810 H   0  0  0  1  0  0
    6.0560   -2.6420   -0.9930 H   0  0  0  1  0  0
  -13.8800    3.4840    0.0730 H   0  0  0  1  0  0
   -9.6510    4.2010    0.5300 H   0  0  0  1  0  0
  -12.0110    4.5900    1.4670 H   0  0  0  1  0  0
    4.1850   -2.0490   -4.2180 H   0  0  0  1  0  0
    3.6900   -2.7280   -2.6320 H   0  0  0  1  0  0
    4.0940    0.0460    2.0450 H   0  0  0  1  0  0
  -10.8420    1.8810    2.0870 H   0  0  0  1  0  0
  -10.1110    3.3770    2.7620 H   0  0  0  1  0  0
    5.0600    2.9480    1.8450 H   0  0  0  1  0  0
    7.9220   -2.3820   -0.3580 H   0  0  0  1  0  0
    5.2840    2.9920    4.1500 H   0  0  0  1  0  0
    2.8140    3.3950    2.6500 H   0  0  0  1  0  0
    8.5860    0.4050    0.7950 H   0  0  0  1  0  0
    3.1070    0.8650    4.3390 H   0  0  0  1  0  0
   10.3790   -2.0830    0.8520 H   0  0  0  1  0  0
    8.2320   -3.4630    1.7750 H   0  0  0  1  0  0
    8.8900   -0.8300    3.2230 H   0  0  0  1  0  0
    0.4630    2.6180    2.2720 H   0  0  0  1  0  0
    0.7010    1.3390    3.4790 H   0  0  0  1  0  0
    0.7380    3.0330    3.9620 H   0  0  0  1  0  0
    6.6290   -2.0190    3.9360 H   0  0  0  1  0  0
    7.7460   -3.3780    4.2900 H   0  0  0  1  0  0
    9.4130    0.7750    2.4780 H   0  0  0  1  0  0
   12.3780    1.4530    3.0250 H   0  0  0  1  0  0
    9.9220    2.8050    4.2700 H   0  0  0  1  0  0
    8.9150    3.0210    1.7580 H   0  0  0  1  0  0
   11.8050    3.9900    2.1560 H   0  0  0  1  0  0
   10.9740    4.1090   -0.2320 H   0  0  0  1  0  0
    9.4690    4.9400    0.2860 H   0  0  0  1  0  0
    2.9190   -2.5930    0.4200 H   0  0  0  1  0  0
  -12.6420    1.9060   -2.7410 H   0  0  0  1  0  0
  -13.5480    2.9120    2.1370 H   0  0  0  1  0  0
  -11.2650    5.7300   -0.2140 H   0  0  0  1  0  0
    4.8770   -4.1810   -3.8880 H   0  0  0  1  0  0
   -8.6650    1.6490    2.6840 H   0  0  0  1  0  0
    6.6550    1.7860    1.0610 H   0  0  0  1  0  0
    6.4980    1.3040    4.6090 H   0  0  0  1  0  0
    8.9870    0.3490   -1.3260 H   0  0  0  1  0  0
    2.2320    2.3170    5.6200 H   0  0  0  1  0  0
    9.7660   -2.3990    4.3380 H   0  0  0  1  0  0
    5.6110   -4.0390    3.9440 H   0  0  0  1  0  0
   11.8200   -0.1950    4.2590 H   0  0  0  1  0  0
   11.4460    4.1950    5.0650 H   0  0  0  1  0  0
   10.5430    5.6850    2.2790 H   0  0  0  1  0  0
    9.2450    3.8030   -1.6560 H   0  0  0  1  0  0
  1 33  1  0
  1 38  1  0
  2 38  1  0
  2 48  1  0
  3 53  1  0
  3 56  1  0
  4 54  1  0
  4 57  1  0
  5 56  1  0
  5 61  1  0
  6 57  1  0
  6 64  1  0
  7 58  1  0
  7 67  1  0
  8 59  1  0
  8162  1  0
  9 60  1  0
  9163  1  0
 10 62  1  0
 10 70  1  0
 11 63  1  0
 11164  1  0
 12 65  1  0
 12165  1  0
 13 67  1  0
 13 72  1  0
 14 66  1  0
 14166  1  0
 15 68  1  0
 15167  1  0
 16 70  1  0
 16 76  1  0
 17 69  1  0
 17168  1  0
 18 71  1  0
 18169  1  0
 19 73  1  0
 19170  1  0
 20 74  1  0
 20171  1  0
 21 75  1  0
 21 80  1  0
 22 77  1  0
 22172  1  0
 23 79  1  0
 23173  1  0
 24 80  1  0
 24 83  1  0
 25 81  1  0
 25174  1  0
 26 82  1  0
 26175  1  0
 27 84  1  0
 27176  1  0
 28 85  1  0
 28177  1  0
 29 30  1  0
 29 31  1  0
 29 37  1  0
 29 41  1  0
 30 32  1  0
 30 34  1  0
 30 86  1  0
 31 33  1  0
 31 36  1  0
 31 87  1  0
 32 35  1  0
 32 42  1  0
 32 88  1  0
 33 34  1  0
 33 89  1  0
 34 90  1  0
 34 91  1  0
 35 39  1  0
 35 40  1  0
 35 92  1  0
 36 38  1  0
 36 46  1  0
 36 93  1  0
 37 39  1  0
 37 94  1  0
 37 95  1  0
 38 44  1  0
 39 96  1  0
 39 97  1  0
 40 43  1  0
 40 45  1  0
 40 49  1  0
 41 98  1  0
 41 99  1  0
 41100  1  0
 42 47  1  0
 42101  1  0
 42102  1  0
 43 47  2  0
 43 51  1  0
 44 50  1  0
 44103  1  0
 44104  1  0
 45 52  1  0
 45105  1  0
 45106  1  0
 46107  1  0
 46108  1  0
 46109  1  0
 47110  1  0
 48 50  1  0
 48 54  1  0
 48 55  1  0
 49111  1  0
 49112  1  0
 49113  1  0
 50114  1  0
 50115  1  0
 51 53  1  0
 51116  1  0
 51117  1  0
 52 53  1  0
 52118  1  0
 52119  1  0
 53120  1  0
 54121  1  0
 54122  1  0
 55123  1  0
 55124  1  0
 55125  1  0
 56 58  1  0
 56126  1  0
 57 60  1  0
 57127  1  0
 58 59  1  0
 58128  1  0
 59 62  1  0
 59129  1  0
 60 63  1  0
 60130  1  0
 61 62  1  0
 61 66  1  0
 61131  1  0
 62132  1  0
 63 65  1  0
 63133  1  0
 64 65  1  0
 64 68  1  0
 64134  1  0
 65135  1  0
 66136  1  0
 66137  1  0
 67 69  1  0
 67138  1  0
 68139  1  0
 68140  1  0
 69 71  1  0
 69141  1  0
 70 73  1  0
 70142  1  0
 71 74  1  0
 71143  1  0
 72 74  1  0
 72 78  1  0
 72144  1  0
 73 75  1  0
 73145  1  0
 74146  1  0
 75 77  1  0
 75147  1  0
 76 77  1  0
 76 79  1  0
 76148  1  0
 77149  1  0
 78150  1  0
 78151  1  0
 78152  1  0
 79153  1  0
 79154  1  0
 80 81  1  0
 80155  1  0
 81 82  1  0
 81156  1  0
 82 84  1  0
 82157  1  0
 83 84  1  0
 83 85  1  0
 83158  1  0
 84159  1  0
 85160  1  0
 85161  1  0
M  END
> <Name>
71581002

> <AbsoluteEnergy>
113.994

> <ConfNumber>
1

> <IonizationIndex>
1

> <NumberOfIonizations>
1

> <NumberOfStereoisomers>
1

> <NumberOfTautomers>
1

> <OBJECTID>
9223374626723397645

> <PUBCHEM_ATOM_DEF_STEREO_COUNT>
36

> <PUBCHEM_ATOM_UDEF_STEREO_COUNT>
0

> <PUBCHEM_BONDANNOTATIONS>
38  1  5
62  10  6
70  10  5
63  11  6
65  12  5
69  17  5
71  18  5
73  19  6
74  20  6
75  21  5
80  21  5
77  22  6
81  25  6
82  26  5
84  27  6
29  41  5
53  3  5
56  3  5
30  86  6
31  87  6
32  88  5
33  89  6
35  92  6
36  46  6
57  4  6
40  49  5
48  55  6
61  66  5
64  68  6
58  7  6
67  7  6
72  78  5
76  79  5
59  8  5
83  85  5
60  9  5

> <PUBCHEM_BOND_DEF_STEREO_COUNT>
0

> <PUBCHEM_BOND_UDEF_STEREO_COUNT>
0

> <PUBCHEM_CACTVS_COMPLEXITY>
2310

> <PUBCHEM_CACTVS_HBOND_ACCEPTOR>
28

> <PUBCHEM_CACTVS_HBOND_DONOR>
16

> <PUBCHEM_CACTVS_ROTATABLE_BOND>
15

> <PUBCHEM_CACTVS_SUBSKEYS>
AAADcfB8PgAAAAAAAAAAAAAAAAAAAaJEAAA0aJEiQAASAGCAAAAAGgAACAAAD1SwgAMCCAAABgCAAiBCAAAAAAAgAAAACAAAAAgREAIAAQAiQAAFwAAPAAPA4PwPgAAAAAAAAADAAAQAACAAAYAADAAAAA==

> <PUBCHEM_CACTVS_TAUTO_COUNT>
-1

> <PUBCHEM_CACTVS_TPSA>
434

> <PUBCHEM_COMPONENT_COUNT>
1

> <PUBCHEM_COMPOUND_CANONICALIZED>
1

> <PUBCHEM_COMPOUND_CID>
71581002

> <PUBCHEM_COORDINATE_TYPE>
1
5
255

> <PUBCHEM_EXACT_MASS>
1224.57751227

> <PUBCHEM_HEAVY_ATOM_COUNT>
85

> <PUBCHEM_ISOTOPIC_ATOM_COUNT>
0

> <PUBCHEM_IUPAC_CAS_NAME>
(2S,3R,4R,5R,6S)-2-[[(2R,3R,4S,5S,6R)-5-[[(2S,3R,4S,5R,6R)-3,5-dihydroxy-6-(hydroxymethyl)-4-[[(2S,3R,4S,5S,6R)-3,4,5-trihydroxy-6-(hydroxymethyl)-2-oxanyl]oxy]-2-oxanyl]oxy]-4-hydroxy-6-(hydroxymethy
l)-2-[[(1S,2S,4S,5'S,6S,7S,8R,9S,12S,13R,16S)-5',7,9,13-tetramethyl-5'-[[(2S,3R,4S,5S,6R)-3,4,5-trihydroxy-6-(hydroxymethyl)-2-oxanyl]oxymethyl]-16-spiro[5-oxapentacyclo[10.8.0.02,9.04,8.013,18]eicos-
18-ene-6,2'-oxolane]yl]oxy]-3-oxanyl]oxy]-6-methyloxane-3,4,5-triol

> <PUBCHEM_IUPAC_INCHI>
InChI=1S/C57H92O28/c1-21-33-28(84-57(21)13-12-54(3,85-57)20-74-49-41(69)39(67)35(63)29(16-58)77-49)15-27-25-7-6-23-14-24(8-10-55(23,4)26(25)9-11-56(27,33)5)76-53-48(83-50-42(70)38(66)34(62)22(2)75-50)
44(72)46(32(19-61)80-53)81-52-45(73)47(37(65)31(18-60)79-52)82-51-43(71)40(68)36(64)30(17-59)78-51/h6,21-22,24-53,58-73H,7-20H2,1-5H3/t21-,22-,24-,25+,26-,27-,28-,29+,30+,31+,32+,33-,34-,35+,36+,37+,3
8+,39-,40-,41+,42+,43+,44-,45+,46+,47-,48+,49+,50-,51-,52-,53+,54-,55-,56-,57-/m0/s1

> <PUBCHEM_IUPAC_INCHIKEY>
NMIRRCSMDCNCKV-ZRCSLNBESA-N

> <PUBCHEM_IUPAC_NAME>
(2S,3R,4R,5R,6S)-2-[(2R,3R,4S,5S,6R)-5-[(2S,3R,4S,5R,6R)-3,5-dihydroxy-6-(hydroxymethyl)-4-[(2S,3R,4S,5S,6R)-3,4,5-trihydroxy-6-(hydroxymethyl)oxan-2-yl]oxyoxan-2-yl]oxy-4-hydroxy-6-(hydroxymethyl)-2-
[(1S,2S,4S,5'S,6S,7S,8R,9S,12S,13R,16S)-5',7,9,13-tetramethyl-5'-[[(2S,3R,4S,5S,6R)-3,4,5-trihydroxy-6-(hydroxymethyl)oxan-2-yl]oxymethyl]spiro[5-oxapentacyclo[10.8.0.02,9.04,8.013,18]icos-18-ene-6,2'
-oxolane]-16-yl]oxyoxan-3-yl]oxy-6-methyloxane-3,4,5-triol

> <PUBCHEM_IUPAC_NAME_MARKUP>
(2<I>S</I>,3<I>R</I>,4<I>R</I>,5<I>R</I>,6<I>S</I>)-2-[(2<I>R</I>,3<I>R</I>,4<I>S</I>,5<I>S</I>,6<I>R</I>)-5-[(2<I>S</I>,3<I>R</I>,4<I>S</I>,5<I>R</I>,6<I>R</I>)-3,5-dihydroxy-6-(hydroxymethyl)-4-[(2<
I>S</I>,3<I>R</I>,4<I>S</I>,5<I>S</I>,6<I>R</I>)-3,4,5-trihydroxy-6-(hydroxymethyl)oxan-2-yl]oxyoxan-2-yl]oxy-4-hydroxy-6-(hydroxymethyl)-2-[(1<I>S</I>,2<I>S</I>,4<I>S</I>,5&apos;<I>S</I>,6<I>S</I>,7<
I>S</I>,8<I>R</I>,9<I>S</I>,12<I>S</I>,13<I>R</I>,16<I>S</I>)-5&apos;,7,9,13-tetramethyl-5&apos;-[[(2<I>S</I>,3<I>R</I>,4<I>S</I>,5<I>S</I>,6<I>R</I>)-3,4,5-trihydroxy-6-(hydroxymethyl)oxan-2-yl]oxyme
thyl]spiro[5-oxapentacyclo[10.8.0.0<SUP>2,9</SUP>.0<SUP>4,8</SUP>.0<SUP>13,18</SUP>]icos-18-ene-6,2&apos;-oxolane]-16-yl]oxyoxan-3-yl]oxy-6-methyloxane-3,4,5-triol

> <PUBCHEM_IUPAC_OPENEYE_NAME>
(2S,3R,4R,5R,6S)-2-[(2R,3R,4S,5S,6R)-5-[(2S,3R,4S,5R,6R)-3,5-dihydroxy-6-(hydroxymethyl)-4-[(2S,3R,4S,5S,6R)-3,4,5-trihydroxy-6-(hydroxymethyl)tetrahydropyran-2-yl]oxy-tetrahydropyran-2-yl]oxy-4-hydro
xy-6-(hydroxymethyl)-2-[(1S,2S,4S,5'S,6S,7S,8R,9S,12S,13R,16S)-5',7,9,13-tetramethyl-5'-[[(2S,3R,4S,5S,6R)-3,4,5-trihydroxy-6-(hydroxymethyl)tetrahydropyran-2-yl]oxymethyl]spiro[5-oxapentacyclo[10.8.0
.02,9.04,8.013,18]icos-18-ene-6,2'-tetrahydrofuran]-16-yl]oxy-tetrahydropyran-3-yl]oxy-6-methyl-tetrahydropyran-3,4,5-triol

> <PUBCHEM_IUPAC_SYSTEMATIC_NAME>
(2S,3R,4R,5R,6S)-2-[(2R,3R,4S,5S,6R)-6-(hydroxymethyl)-5-[(2S,3R,4S,5R,6R)-6-(hydroxymethyl)-4-[(2S,3R,4S,5S,6R)-6-(hydroxymethyl)-3,4,5-tris(oxidanyl)oxan-2-yl]oxy-3,5-bis(oxidanyl)oxan-2-yl]oxy-2-[(
1S,2S,4S,5'S,6S,7S,8R,9S,12S,13R,16S)-5'-[[(2S,3R,4S,5S,6R)-6-(hydroxymethyl)-3,4,5-tris(oxidanyl)oxan-2-yl]oxymethyl]-5',7,9,13-tetramethyl-spiro[5-oxapentacyclo[10.8.0.02,9.04,8.013,18]icos-18-ene-6
,2'-oxolane]-16-yl]oxy-4-oxidanyl-oxan-3-yl]oxy-6-methyl-oxane-3,4,5-triol

> <PUBCHEM_IUPAC_TRADITIONAL_NAME>
(2S,3R,4R,5R,6S)-2-[(2R,3R,4S,5S,6R)-5-[(2S,3R,4S,5R,6R)-3,5-dihydroxy-6-methylol-4-[(2S,3R,4S,5S,6R)-3,4,5-trihydroxy-6-methylol-tetrahydropyran-2-yl]oxy-tetrahydropyran-2-yl]oxy-4-hydroxy-6-methylol
-2-[(1S,2S,4S,5'S,6S,7S,8R,9S,12S,13R,16S)-5',7,9,13-tetramethyl-5'-[[(2S,3R,4S,5S,6R)-3,4,5-trihydroxy-6-methylol-tetrahydropyran-2-yl]oxymethyl]spiro[5-oxapentacyclo[10.8.0.02,9.04,8.013,18]eicos-18
-ene-6,2'-tetrahydrofuran]-16-yl]oxy-tetrahydropyran-3-yl]oxy-6-methyl-tetrahydropyran-3,4,5-triol

> <PUBCHEM_MOLECULAR_FORMULA>
C57H92O28

> <PUBCHEM_MOLECULAR_WEIGHT>
1225.3

> <PUBCHEM_MONOISOTOPIC_WEIGHT>
1224.57751227

> <PUBCHEM_OPENEYE_CAN_SMILES>
CC1C2C(CC3C2(CCC4C3CC=C5C4(CCC(C5)OC6C(C(C(C(O6)CO)OC7C(C(C(C(O7)CO)O)OC8C(C(C(C(O8)CO)O)O)O)O)O)OC9C(C(C(C(O9)C)O)O)O)C)C)OC11CCC(O1)(C)COC1C(C(C(C(O1)CO)O)O)O

> <PUBCHEM_OPENEYE_ISO_SMILES>
C[C@H]1[C@H]2[C@H](C[C@@H]3[C@@]2(CC[C@H]4[C@H]3CC=C5[C@@]4(CC[C@@H](C5)O[C@H]6[C@@H]([C@H]([C@@H]([C@H](O6)CO)O[C@H]7[C@@H]([C@H]([C@@H]([C@H](O7)CO)O)O[C@H]8[C@@H]([C@H]([C@@H]([C@H](O8)CO)O)O)O)O)O
)O[C@H]9[C@@H]([C@@H]([C@H]([C@@H](O9)C)O)O)O)C)C)O[C@]11CC[C@@](O1)(C)CO[C@H]1[C@@H]([C@H]([C@@H]([C@H](O1)CO)O)O)O

> <PUBCHEM_TOTAL_CHARGE>
0

> <PUBCHEM_XLOGP3_AA>
-3.6

> <RelativeEnergy>
0

> <StereoisomerIndex>
1

> <TautomerIndex>
1

> <LibDock Warning>
no hit found

> <ErrorText>
LibDock failed

$$$$
71773169
  SciTegic09112317153D

158166  0  0  0  0            999 V2000
   -3.3380    1.8680   -0.8760 O   0  0  0  1  0  0
    4.1350   -2.2040   -0.9570 O   0  0  0  1  0  0
    2.7700   -3.8830   -1.5370 O   0  0  0  1  0  0
   -5.6140    1.3770   -1.3150 O   0  0  0  1  0  0
   -5.3230   -0.5300    0.9780 O   0  0  0  1  0  0
   -4.4980    2.8980    1.7710 O   0  0  0  1  0  0
    3.1780   -2.8770    1.0390 O   0  0  0  1  0  0
   -7.6520    1.3750    0.8710 O   0  0  0  1  0  0
    6.7180   -2.4790    0.2460 O   0  0  0  1  0  0
   -5.1100   -2.2000   -0.5900 O   0  0  0  1  0  0
   -5.2720    3.8900   -2.4320 O   0  0  0  1  0  0
    6.6910   -2.3240    3.1590 O   0  0  0  1  0  0
   -5.9230    4.0080    3.1950 O   0  0  0  1  0  0
    4.4800   -3.8280    4.3090 O   0  0  0  1  0  0
   -3.9910   -2.2420    2.8970 O   0  0  0  1  0  0
    7.0280   -0.2930   -0.4000 O   0  0  0  1  0  0
    0.9320   -4.1920    2.1080 O   0  0  0  1  0  0
   -2.2220    3.9650    3.1250 O   0  0  0  1  0  0
   -4.1740   -5.0690    2.2440 O   0  0  0  1  0  0
   -3.7260   -5.5730   -0.5840 O   0  0  0  1  0  0
   -3.1160    6.4130    4.7630 O   0  0  0  1  0  0
   -5.2840    3.9220    6.0680 O   0  0  0  1  0  0
    9.5880   -2.7390    0.5390 O   0  0  0  1  0  0
   -4.8590   -2.6240   -3.3490 O   0  0  0  1  0  0
   11.0880   -0.8070   -1.0310 O   0  0  0  1  0  0
   -7.2960    6.5910    2.7040 O   0  0  0  1  0  0
    9.9320    1.8570   -0.8890 O   0  0  0  1  0  0
    5.8330    2.2940   -0.3340 O   0  0  0  1  0  0
   -0.8240   -0.4580   -2.1000 C   0  0  2  1  0  0
    0.2170    0.4840   -2.7970 C   0  0  2  1  0  0
    1.6710   -0.0660   -2.7390 C   0  0  1  1  0  0
    1.7220   -1.5240   -3.2800 C   0  0  2  1  0  0
   -1.5340    0.2530   -0.9220 C   0  0  0  1  0  0
   -2.2960    1.3480   -1.6810 C   0  0  2  1  0  0
   -0.2580   -1.8120   -1.6480 C   0  0  0  1  0  0
    0.1140    1.9430   -2.2780 C   0  0  0  1  0  0
   -2.0350   -0.6770   -3.0360 C   0  0  0  1  0  0
    0.5580   -2.4270   -2.7920 C   0  0  0  1  0  0
    3.1360   -2.1710   -3.1390 C   0  0  2  1  0  0
    2.6110    0.8140   -3.6110 C   0  0  0  1  0  0
   -1.3280    2.4690   -2.1130 C   0  0  0  1  0  0
   -2.8230    0.5830   -2.8650 C   0  0  0  1  0  0
    2.1760   -0.0240   -1.2850 C   0  0  0  1  0  0
    4.2570   -1.1120   -3.3100 C   0  0  0  1  0  0
    3.8240    0.0620   -4.1950 C   0  0  0  1  0  0
    3.2940   -3.2660   -4.2030 C   0  0  0  1  0  0
    3.3280   -2.8410   -1.7980 C   0  0  0  1  0  0
   -3.8420    0.9610   -3.6580 C   0  0  0  1  0  0
   -4.4020    0.9570   -0.6840 C   0  0  2  1  0  0
   -4.6070    0.6830    0.8300 C   0  0  1  1  0  0
   -5.3780    1.8110    1.5590 C   0  0  2  1  0  0
    4.3530   -2.9340    0.2430 C   0  0  2  1  0  0
   -6.2790    2.5170   -0.7590 C   0  0  1  1  0  0
   -6.5940    2.3090    0.7430 C   0  0  1  1  0  0
    5.5420   -2.3280    1.0230 C   0  0  1  1  0  0
   -5.4700    3.7890   -1.0390 C   0  0  0  1  0  0
   -4.5710   -1.6690    0.6130 C   0  0  2  1  0  0
    5.7200   -3.0200    2.3920 C   0  0  2  1  0  0
    3.2400   -3.6090    2.2590 C   0  0  1  1  0  0
    4.3700   -3.0350    3.1420 C   0  0  1  1  0  0
   -4.6080    3.4600    3.0620 C   0  0  2  1  0  0
   -4.6300   -2.7390    1.7340 C   0  0  1  1  0  0
    1.8590   -3.5010    2.9140 C   0  0  0  1  0  0
   -3.5110    4.5270    3.3100 C   0  0  1  1  0  0
   -3.9390   -4.0470    1.2860 C   0  0  2  1  0  0
    7.5940   -1.3740    0.3290 C   0  0  2  1  0  0
   -4.4240   -3.3310   -1.1130 C   0  0  1  1  0  0
   -4.4860   -4.4860   -0.0890 C   0  0  1  1  0  0
   -3.6070    5.0830    4.7540 C   0  0  2  1  0  0
   -6.0990    5.0870    4.1150 C   0  0  1  1  0  0
   -5.0700    5.0750    5.2720 C   0  0  1  1  0  0
    8.9820   -1.7380   -0.2610 C   0  0  1  1  0  0
   -5.0910   -3.6810   -2.4460 C   0  0  0  1  0  0
    9.9030   -0.4970   -0.3150 C   0  0  2  1  0  0
    7.7780    0.9160   -0.3690 C   0  0  1  1  0  0
   -6.0390    6.3870    3.3080 C   0  0  0  1  0  0
    9.1660    0.6720   -1.0040 C   0  0  1  1  0  0
    6.9580    1.9690   -1.1200 C   0  0  0  1  0  0
   -0.0360    0.5290   -3.8590 H   0  0  0  1  0  0
    1.5470   -1.4210   -4.3530 H   0  0  0  1  0  0
   -2.2060   -0.4280   -0.4120 H   0  0  0  1  0  0
   -0.8470    0.6380   -0.1820 H   0  0  0  1  0  0
   -1.0600   -2.4920   -1.3550 H   0  0  0  1  0  0
    0.3660   -1.6980   -0.7630 H   0  0  0  1  0  0
    0.6000    2.0070   -1.3060 H   0  0  0  1  0  0
    0.6740    2.6200   -2.9240 H   0  0  0  1  0  0
   -2.6390   -1.5180   -2.7280 H   0  0  0  1  0  0
   -1.7510   -0.8340   -4.0680 H   0  0  0  1  0  0
   -0.1160   -2.6220   -3.6280 H   0  0  0  1  0  0
    0.9120   -3.4140   -2.4930 H   0  0  0  1  0  0
    2.9550    1.6690   -3.0300 H   0  0  0  1  0  0
    2.0600    1.2420   -4.4500 H   0  0  0  1  0  0
   -1.6690    2.9240   -3.0420 H   0  0  0  1  0  0
   -1.3070    3.2760   -1.3790 H   0  0  0  1  0  0
    3.1660    0.4290   -1.2340 H   0  0  0  1  0  0
    1.4920    0.5440   -0.6550 H   0  0  0  1  0  0
    2.2500   -1.0310   -0.8740 H   0  0  0  1  0  0
    4.5550   -0.7010   -2.3450 H   0  0  0  1  0  0
    5.1610   -1.5710   -3.7150 H   0  0  0  1  0  0
    4.6530    0.7540   -4.3380 H   0  0  0  1  0  0
    3.5740   -0.3210   -5.1840 H   0  0  0  1  0  0
    4.2510   -3.7810   -4.1180 H   0  0  0  1  0  0
    3.2290   -2.8420   -5.2050 H   0  0  0  1  0  0
    2.5040   -4.0110   -4.1060 H   0  0  0  1  0  0
   -4.2600    0.4060   -4.4870 H   0  0  0  1  0  0
   -4.2760    1.9240   -3.4320 H   0  0  0  1  0  0
   -4.0860    0.0460   -1.1940 H   0  0  0  1  0  0
   -3.6490    0.4990    1.3160 H   0  0  0  1  0  0
   -5.6810    1.4930    2.5580 H   0  0  0  1  0  0
    4.5380   -3.9760   -0.0250 H   0  0  0  1  0  0
   -7.2110    2.6180   -1.3160 H   0  0  0  1  0  0
   -6.9810    3.2370    1.1670 H   0  0  0  1  0  0
    5.3730   -1.2570    1.1570 H   0  0  0  1  0  0
   -4.4910    3.7370   -0.5610 H   0  0  0  1  0  0
   -6.0160    4.6730   -0.7080 H   0  0  0  1  0  0
   -3.5470   -1.3480    0.4200 H   0  0  0  1  0  0
    6.0760   -4.0410    2.2470 H   0  0  0  1  0  0
    3.4380   -4.6520    2.0070 H   0  0  0  1  0  0
    4.1040   -2.0250    3.4590 H   0  0  0  1  0  0
   -4.5140    2.6490    3.7860 H   0  0  0  1  0  0
   -5.6720   -2.9430    1.9940 H   0  0  0  1  0  0
    1.5430   -2.4590    2.9800 H   0  0  0  1  0  0
    1.8630   -3.9650    3.9010 H   0  0  0  1  0  0
   -3.6190    5.3220    2.5700 H   0  0  0  1  0  0
   -2.8610   -3.8930    1.2230 H   0  0  0  1  0  0
    7.6680   -1.0820    1.3780 H   0  0  0  1  0  0
   -3.3900   -3.0320   -1.2960 H   0  0  0  1  0  0
   -5.5190   -4.8280    0.0090 H   0  0  0  1  0  0
   -2.9650    4.5290    5.4410 H   0  0  0  1  0  0
   -7.1120    4.9980    4.5100 H   0  0  0  1  0  0
   -5.2580    5.9190    5.9410 H   0  0  0  1  0  0
    8.8570   -2.1490   -1.2650 H   0  0  0  1  0  0
   -6.1710   -3.7890   -2.3200 H   0  0  0  1  0  0
   -4.6590   -4.5900   -2.8660 H   0  0  0  1  0  0
   10.1900   -0.2070    0.6970 H   0  0  0  1  0  0
    7.8790    1.2160    0.6750 H   0  0  0  1  0  0
   -5.2910    6.3150    2.5160 H   0  0  0  1  0  0
   -5.8320    7.2380    3.9580 H   0  0  0  1  0  0
    9.0450    0.4650   -2.0700 H   0  0  0  1  0  0
    6.6050    1.5750   -2.0720 H   0  0  0  1  0  0
    7.5420    2.8780   -1.2690 H   0  0  0  1  0  0
   -8.4350    1.7730    0.4610 H   0  0  0  1  0  0
   -4.7610    4.7000   -2.5890 H   0  0  0  1  0  0
    6.9670   -2.9150    3.8770 H   0  0  0  1  0  0
    3.8180   -3.5030    4.9410 H   0  0  0  1  0  0
   -4.5710   -1.5610    3.2760 H   0  0  0  1  0  0
    0.0650   -4.1120    2.5380 H   0  0  0  1  0  0
   -2.0720    3.9030    2.1670 H   0  0  0  1  0  0
   -3.5210   -5.7670    2.0810 H   0  0  0  1  0  0
   -4.3070   -6.0880   -1.1650 H   0  0  0  1  0  0
   -3.0380    6.6830    5.6920 H   0  0  0  1  0  0
   -6.1550    4.0190    6.4830 H   0  0  0  1  0  0
    9.1540   -3.5810    0.3220 H   0  0  0  1  0  0
   -5.2870   -2.8620   -4.1860 H   0  0  0  1  0  0
   11.7390   -0.1230   -0.8160 H   0  0  0  1  0  0
   -7.2400    7.4170    2.1970 H   0  0  0  1  0  0
    9.7100    2.4170   -1.6490 H   0  0  0  1  0  0
    5.2040    1.5620   -0.4210 H   0  0  0  1  0  0
  1 34  1  0
  1 49  1  0
  2 47  1  0
  2 52  1  0
  3 47  2  0
  4 49  1  0
  4 53  1  0
  5 50  1  0
  5 57  1  0
  6 51  1  0
  6 61  1  0
  7 52  1  0
  7 59  1  0
  8 54  1  0
  8142  1  0
  9 55  1  0
  9 66  1  0
 10 57  1  0
 10 67  1  0
 11 56  1  0
 11143  1  0
 12 58  1  0
 12144  1  0
 13 61  1  0
 13 70  1  0
 14 60  1  0
 14145  1  0
 15 62  1  0
 15146  1  0
 16 66  1  0
 16 75  1  0
 17 63  1  0
 17147  1  0
 18 64  1  0
 18148  1  0
 19 65  1  0
 19149  1  0
 20 68  1  0
 20150  1  0
 21 69  1  0
 21151  1  0
 22 71  1  0
 22152  1  0
 23 72  1  0
 23153  1  0
 24 73  1  0
 24154  1  0
 25 74  1  0
 25155  1  0
 26 76  1  0
 26156  1  0
 27 77  1  0
 27157  1  0
 28 78  1  0
 28158  1  0
 29 30  1  0
 29 33  1  0
 29 35  1  0
 29 37  1  0
 30 31  1  0
 30 36  1  0
 30 79  1  0
 31 32  1  0
 31 40  1  0
 31 43  1  0
 32 38  1  0
 32 39  1  0
 32 80  1  0
 33 34  1  0
 33 81  1  0
 33 82  1  0
 34 41  1  0
 34 42  1  0
 35 38  1  0
 35 83  1  0
 35 84  1  0
 36 41  1  0
 36 85  1  0
 36 86  1  0
 37 42  1  0
 37 87  1  0
 37 88  1  0
 38 89  1  0
 38 90  1  0
 39 44  1  0
 39 46  1  0
 39 47  1  0
 40 45  1  0
 40 91  1  0
 40 92  1  0
 41 93  1  0
 41 94  1  0
 42 48  2  0
 43 95  1  0
 43 96  1  0
 43 97  1  0
 44 45  1  0
 44 98  1  0
 44 99  1  0
 45100  1  0
 45101  1  0
 46102  1  0
 46103  1  0
 46104  1  0
 48105  1  0
 48106  1  0
 49 50  1  0
 49107  1  0
 50 51  1  0
 50108  1  0
 51 54  1  0
 51109  1  0
 52 55  1  0
 52110  1  0
 53 54  1  0
 53 56  1  0
 53111  1  0
 54112  1  0
 55 58  1  0
 55113  1  0
 56114  1  0
 56115  1  0
 57 62  1  0
 57116  1  0
 58 60  1  0
 58117  1  0
 59 60  1  0
 59 63  1  0
 59118  1  0
 60119  1  0
 61 64  1  0
 61120  1  0
 62 65  1  0
 62121  1  0
 63122  1  0
 63123  1  0
 64 69  1  0
 64124  1  0
 65 68  1  0
 65125  1  0
 66 72  1  0
 66126  1  0
 67 68  1  0
 67 73  1  0
 67127  1  0
 68128  1  0
 69 71  1  0
 69129  1  0
 70 71  1  0
 70 76  1  0
 70130  1  0
 71131  1  0
 72 74  1  0
 72132  1  0
 73133  1  0
 73134  1  0
 74 77  1  0
 74135  1  0
 75 77  1  0
 75 78  1  0
 75136  1  0
 76137  1  0
 76138  1  0
 77139  1  0
 78140  1  0
 78141  1  0
M  END
> <Name>
71773169

> <AbsoluteEnergy>
118.977

> <ConfNumber>
1

> <IonizationIndex>
1

> <NumberOfIonizations>
1

> <NumberOfStereoisomers>
1

> <NumberOfTautomers>
1

> <OBJECTID>
9223374631018364941

> <PUBCHEM_ATOM_DEF_STEREO_COUNT>
31

> <PUBCHEM_ATOM_UDEF_STEREO_COUNT>
0

> <PUBCHEM_BONDANNOTATIONS>
34  1  6
49  1  5
58  12  5
60  14  6
62  15  5
64  18  6
65  19  6
52  2  5
68  20  5
69  21  5
71  22  6
72  23  6
74  25  5
77  27  6
29  35  6
30  79  5
31  43  6
32  80  5
39  46  5
50  5  6
57  5  6
53  56  5
59  63  5
51  6  5
61  6  5
67  73  6
70  76  5
75  78  5
54  8  6
55  9  6
66  9  5

> <PUBCHEM_BOND_DEF_STEREO_COUNT>
0

> <PUBCHEM_BOND_UDEF_STEREO_COUNT>
0

> <PUBCHEM_CACTVS_COMPLEXITY>
2080

> <PUBCHEM_CACTVS_HBOND_ACCEPTOR>
28

> <PUBCHEM_CACTVS_HBOND_DONOR>
17

> <PUBCHEM_CACTVS_ROTATABLE_BOND>
16

> <PUBCHEM_CACTVS_SUBSKEYS>
AAADcfB8PgAAAAAAAAAAAAAAAAAAAYAAAAA0aNEiRgAAAADAAAAAGgAACAAAD1SwgAMCCAAABgCIAgDSCAAAAAAgAAAAAAEAAAgRFBIAIQAiQAAFgAAHIAHI6PyPgAAAAAAAAADAAAYAACAAAYAAAAAAAA==

> <PUBCHEM_CACTVS_TAUTO_COUNT>
1

> <PUBCHEM_CACTVS_TPSA>
453

> <PUBCHEM_COMPONENT_COUNT>
1

> <PUBCHEM_COMPOUND_CANONICALIZED>
1

> <PUBCHEM_COMPOUND_CID>
71773169

> <PUBCHEM_COORDINATE_TYPE>
1
5
255

> <PUBCHEM_EXACT_MASS>
1128.48361189

> <PUBCHEM_HEAVY_ATOM_COUNT>
78

> <PUBCHEM_ISOTOPIC_ATOM_COUNT>
0

> <PUBCHEM_IUPAC_CAS_NAME>
(1R,4S,5R,9S,10R,13S)-13-[[(2S,3R,4S,5R,6R)-5-hydroxy-6-(hydroxymethyl)-3,4-bis[[(2S,3R,4S,5S,6R)-3,4,5-trihydroxy-6-(hydroxymethyl)-2-oxanyl]oxy]-2-oxanyl]oxy]-5,9-dimethyl-14-methylene-5-tetracyclo[
11.2.1.01,10.04,9]hexadecanecarboxylic acid [(2S,3R,4S,5S,6R)-4,5-dihydroxy-6-(hydroxymethyl)-3-[[(2S,3R,4S,5S,6R)-3,4,5-trihydroxy-6-(hydroxymethyl)-2-oxanyl]oxy]-2-oxanyl] ester

> <PUBCHEM_IUPAC_INCHI>
InChI=1S/C50H80O28/c1-18-11-49-9-5-24-47(2,7-4-8-48(24,3)46(68)77-44-39(34(64)29(59)22(15-54)72-44)75-42-36(66)32(62)27(57)20(13-52)70-42)25(49)6-10-50(18,17-49)78-45-40(76-43-37(67)33(63)28(58)21(14-
53)71-43)38(30(60)23(16-55)73-45)74-41-35(65)31(61)26(56)19(12-51)69-41/h19-45,51-67H,1,4-17H2,2-3H3/t19-,20-,21-,22-,23-,24+,25+,26-,27-,28-,29-,30-,31+,32+,33+,34+,35-,36-,37-,38+,39-,40-,41+,42+,43
+,44+,45+,47-,48-,49-,50+/m1/s1

> <PUBCHEM_IUPAC_INCHIKEY>
RPYRMTHVSUWHSV-CUZJHZIBSA-N

> <PUBCHEM_IUPAC_NAME>
[(2S,3R,4S,5S,6R)-4,5-dihydroxy-6-(hydroxymethyl)-3-[(2S,3R,4S,5S,6R)-3,4,5-trihydroxy-6-(hydroxymethyl)oxan-2-yl]oxyoxan-2-yl] (1R,4S,5R,9S,10R,13S)-13-[(2S,3R,4S,5R,6R)-5-hydroxy-6-(hydroxymethyl)-3
,4-bis[[(2S,3R,4S,5S,6R)-3,4,5-trihydroxy-6-(hydroxymethyl)oxan-2-yl]oxy]oxan-2-yl]oxy-5,9-dimethyl-14-methylidenetetracyclo[11.2.1.01,10.04,9]hexadecane-5-carboxylate

> <PUBCHEM_IUPAC_NAME_MARKUP>
[(2<I>S</I>,3<I>R</I>,4<I>S</I>,5<I>S</I>,6<I>R</I>)-4,5-dihydroxy-6-(hydroxymethyl)-3-[(2<I>S</I>,3<I>R</I>,4<I>S</I>,5<I>S</I>,6<I>R</I>)-3,4,5-trihydroxy-6-(hydroxymethyl)oxan-2-yl]oxyoxan-2-yl] (1
<I>R</I>,4<I>S</I>,5<I>R</I>,9<I>S</I>,10<I>R</I>,13<I>S</I>)-13-[(2<I>S</I>,3<I>R</I>,4<I>S</I>,5<I>R</I>,6<I>R</I>)-5-hydroxy-6-(hydroxymethyl)-3,4-bis[[(2<I>S</I>,3<I>R</I>,4<I>S</I>,5<I>S</I>,6<I>
R</I>)-3,4,5-trihydroxy-6-(hydroxymethyl)oxan-2-yl]oxy]oxan-2-yl]oxy-5,9-dimethyl-14-methylidenetetracyclo[11.2.1.0<SUP>1,10</SUP>.0<SUP>4,9</SUP>]hexadecane-5-carboxylate

> <PUBCHEM_IUPAC_OPENEYE_NAME>
[(2S,3R,4S,5S,6R)-4,5-dihydroxy-6-(hydroxymethyl)-3-[(2S,3R,4S,5S,6R)-3,4,5-trihydroxy-6-(hydroxymethyl)tetrahydropyran-2-yl]oxy-tetrahydropyran-2-yl] (1R,4S,5R,9S,10R,13S)-13-[(2S,3R,4S,5R,6R)-5-hydr
oxy-6-(hydroxymethyl)-3,4-bis[[(2S,3R,4S,5S,6R)-3,4,5-trihydroxy-6-(hydroxymethyl)tetrahydropyran-2-yl]oxy]tetrahydropyran-2-yl]oxy-5,9-dimethyl-14-methylene-tetracyclo[11.2.1.01,10.04,9]hexadecane-5-
carboxylate

> <PUBCHEM_IUPAC_SYSTEMATIC_NAME>
[(2S,3R,4S,5S,6R)-6-(hydroxymethyl)-3-[(2S,3R,4S,5S,6R)-6-(hydroxymethyl)-3,4,5-tris(oxidanyl)oxan-2-yl]oxy-4,5-bis(oxidanyl)oxan-2-yl] (1R,4S,5R,9S,10R,13S)-13-[(2S,3R,4S,5R,6R)-6-(hydroxymethyl)-3,4
-bis[[(2S,3R,4S,5S,6R)-6-(hydroxymethyl)-3,4,5-tris(oxidanyl)oxan-2-yl]oxy]-5-oxidanyl-oxan-2-yl]oxy-5,9-dimethyl-14-methylidene-tetracyclo[11.2.1.01,10.04,9]hexadecane-5-carboxylate

> <PUBCHEM_IUPAC_TRADITIONAL_NAME>
(1R,4S,5R,9S,10R,13S)-13-[(2S,3R,4S,5R,6R)-5-hydroxy-6-methylol-3,4-bis[[(2S,3R,4S,5S,6R)-3,4,5-trihydroxy-6-methylol-tetrahydropyran-2-yl]oxy]tetrahydropyran-2-yl]oxy-5,9-dimethyl-14-methylene-tetrac
yclo[11.2.1.01,10.04,9]hexadecane-5-carboxylic acid [(2S,3R,4S,5S,6R)-4,5-dihydroxy-6-methylol-3-[(2S,3R,4S,5S,6R)-3,4,5-trihydroxy-6-methylol-tetrahydropyran-2-yl]oxy-tetrahydropyran-2-yl] ester

> <PUBCHEM_MOLECULAR_FORMULA>
C50H80O28

> <PUBCHEM_MOLECULAR_WEIGHT>
1129.2

> <PUBCHEM_MONOISOTOPIC_WEIGHT>
1128.48361189

> <PUBCHEM_OPENEYE_CAN_SMILES>
CC12CCCC(C1CCC34C2CCC(C3)(C(=C)C4)OC5C(C(C(C(O5)CO)O)OC6C(C(C(C(O6)CO)O)O)O)OC7C(C(C(C(O7)CO)O)O)O)(C)C(=O)OC8C(C(C(C(O8)CO)O)O)OC9C(C(C(C(O9)CO)O)O)O

> <PUBCHEM_OPENEYE_ISO_SMILES>
C[C@@]12CCC[C@@]([C@H]1CC[C@]34[C@H]2CC[C@](C3)(C(=C)C4)O[C@H]5[C@@H]([C@H]([C@@H]([C@H](O5)CO)O)O[C@H]6[C@@H]([C@H]([C@@H]([C@H](O6)CO)O)O)O)O[C@H]7[C@@H]([C@H]([C@@H]([C@H](O7)CO)O)O)O)(C)C(=O)O[C@H
]8[C@@H]([C@H]([C@@H]([C@H](O8)CO)O)O)O[C@H]9[C@@H]([C@H]([C@@H]([C@H](O9)CO)O)O)O

> <PUBCHEM_TOTAL_CHARGE>
0

> <PUBCHEM_XLOGP3_AA>
-4.4

> <RelativeEnergy>
0

> <StereoisomerIndex>
1

> <TautomerIndex>
1

> <LibDock Warning>
no hit found

> <ErrorText>
LibDock failed

$$$$
72941582
  SciTegic09112317153D

115121  0  0  0  0            999 V2000
    2.9940    0.8730   -0.1900 O   0  0  0  1  0  0
   -5.8240   -1.7000   -0.8920 O   0  0  0  1  0  0
   -4.3460   -2.8770    0.3120 O   0  0  0  1  0  0
    3.6320    2.3690   -1.8190 O   0  0  0  1  0  0
    4.9930    2.0190    1.5650 O   0  0  0  1  0  0
   -5.0700   -3.3120   -2.3700 O   0  0  0  1  0  0
    7.1390    3.3720    0.1430 O   0  0  0  1  0  0
    6.1450    5.0020   -2.0510 O   0  0  0  1  0  0
   -8.5000   -2.3540   -1.4370 O   0  0  0  1  0  0
    4.6980    0.4880    3.3260 O   0  0  0  1  0  0
    2.6540    3.8270   -4.0330 O   0  0  0  1  0  0
   -8.6410   -3.9370   -4.0870 O   0  0  0  1  0  0
   -6.3790   -5.9530   -2.2350 O   0  0  0  1  0  0
    6.8910   -1.0320    2.0810 O   0  0  0  1  0  0
    8.8680    0.7070    3.1070 O   0  0  0  1  0  0
   -4.2210   -2.9770   -5.2160 O   0  0  0  1  0  0
    7.4320    1.7090    5.4250 O   0  0  0  1  0  0
   -0.3430   -0.1630    0.8130 C   0  0  2  1  0  0
   -1.2620    0.9000    0.1160 C   0  0  2  1  0  0
   -2.6860    0.3570   -0.2000 C   0  0  1  1  0  0
   -3.2880   -0.2320    1.1130 C   0  0  2  1  0  0
    0.9530   -0.4160    0.0060 C   0  0  0  1  0  0
    1.6130    0.9660    0.1100 C   0  0  2  1  0  0
   -1.0260   -1.5060    1.1110 C   0  0  0  1  0  0
   -0.5610    1.5530   -1.1020 C   0  0  0  1  0  0
    0.2630    0.4470    2.0960 C   0  0  0  1  0  0
   -2.4000   -1.3180    1.7710 C   0  0  0  1  0  0
   -4.7820   -0.6500    1.0000 C   0  0  2  1  0  0
   -3.5900    1.5100   -0.6960 C   0  0  0  1  0  0
    0.9090    1.9500   -0.8460 C   0  0  0  1  0  0
    1.3700    1.3020    1.5590 C   0  0  0  1  0  0
   -2.6130   -0.7040   -1.3100 C   0  0  0  1  0  0
   -5.6200    0.5230    0.4530 C   0  0  0  1  0  0
   -5.0570    1.0940   -0.8520 C   0  0  0  1  0  0
   -5.3260   -1.0390    2.3820 C   0  0  0  1  0  0
   -4.9610   -1.8570    0.1080 C   0  0  0  1  0  0
    2.0330    2.2290    2.2740 C   0  0  0  1  0  0
    3.6000    2.1300   -0.4180 C   0  0  2  1  0  0
    5.0430    2.1460    0.1520 C   0  0  1  1  0  0
    5.7680    3.4600   -0.2200 C   0  0  2  1  0  0
   -6.1530   -2.9300   -1.5200 C   0  0  2  1  0  0
    4.1750    3.6260   -2.2060 C   0  0  1  1  0  0
    5.6450    3.7140   -1.7370 C   0  0  1  1  0  0
   -7.4760   -2.8060   -2.3030 C   0  0  1  1  0  0
    4.0270    3.7260   -3.7270 C   0  0  0  1  0  0
    5.2200    0.6970    2.0120 C   0  0  2  1  0  0
   -7.8820   -4.1730   -2.9150 C   0  0  2  1  0  0
   -5.3740   -4.1490   -3.4890 C   0  0  1  1  0  0
   -6.6340   -5.0230   -3.2740 C   0  0  1  1  0  0
    6.7330    0.3740    1.9570 C   0  0  1  1  0  0
    7.5090    1.1150    3.0750 C   0  0  1  1  0  0
   -5.5120   -3.2350   -4.7110 C   0  0  0  1  0  0
    5.3180    1.2290    4.3740 C   0  0  2  1  0  0
    6.8270    0.8880    4.4420 C   0  0  2  1  0  0
    4.5710    0.8780    5.6650 C   0  0  0  1  0  0
   -1.4160    1.7180    0.8200 H   0  0  0  1  0  0
   -3.2780    0.6010    1.8180 H   0  0  0  1  0  0
    1.5540   -1.1860    0.4720 H   0  0  0  1  0  0
    0.7650   -0.7280   -1.0120 H   0  0  0  1  0  0
   -1.1410   -2.0760    0.1900 H   0  0  0  1  0  0
   -0.3960   -2.1270    1.7510 H   0  0  0  1  0  0
   -0.5830    0.8590   -1.9420 H   0  0  0  1  0  0
   -1.1070    2.4360   -1.4370 H   0  0  0  1  0  0
    0.6780   -0.3090    2.7460 H   0  0  0  1  0  0
   -0.4510    1.0220    2.6680 H   0  0  0  1  0  0
   -2.9030   -2.2850    1.7770 H   0  0  0  1  0  0
   -2.2550   -1.0650    2.8220 H   0  0  0  1  0  0
   -3.5340    2.3440    0.0050 H   0  0  0  1  0  0
   -3.2310    1.8930   -1.6510 H   0  0  0  1  0  0
    1.4170    1.9980   -1.8110 H   0  0  0  1  0  0
    0.9580    2.9620   -0.4390 H   0  0  0  1  0  0
   -1.6290   -0.7380   -1.7770 H   0  0  0  1  0  0
   -3.3450   -0.4970   -2.0910 H   0  0  0  1  0  0
   -2.8270   -1.6960   -0.9120 H   0  0  0  1  0  0
   -5.6490    1.3220    1.1950 H   0  0  0  1  0  0
   -6.6570    0.2180    0.3020 H   0  0  0  1  0  0
   -5.6500    1.9550   -1.1620 H   0  0  0  1  0  0
   -5.1490    0.3590   -1.6520 H   0  0  0  1  0  0
   -6.3870   -1.2860    2.3460 H   0  0  0  1  0  0
   -5.1960   -0.2210    3.0900 H   0  0  0  1  0  0
   -4.7940   -1.9070    2.7750 H   0  0  0  1  0  0
    2.8130    2.8870    1.9220 H   0  0  0  1  0  0
    1.7410    2.3090    3.3110 H   0  0  0  1  0  0
    2.9750    2.8940    0.0490 H   0  0  0  1  0  0
    5.6020    1.2920   -0.2370 H   0  0  0  1  0  0
    5.3310    4.2940    0.3320 H   0  0  0  1  0  0
   -6.2470   -3.6880   -0.7410 H   0  0  0  1  0  0
    3.5720    4.4040   -1.7330 H   0  0  0  1  0  0
    6.2440    2.9880   -2.2920 H   0  0  0  1  0  0
   -7.3540   -2.0400   -3.0740 H   0  0  0  1  0  0
    4.4190    2.8330   -4.2120 H   0  0  0  1  0  0
    4.5240    4.6210   -4.1050 H   0  0  0  1  0  0
    4.6600    0.0490    1.3360 H   0  0  0  1  0  0
   -8.5390   -4.7310   -2.2430 H   0  0  0  1  0  0
   -4.4990   -4.7810   -3.6530 H   0  0  0  1  0  0
   -6.8150   -5.6350   -4.1590 H   0  0  0  1  0  0
    7.1410    0.6380    0.9800 H   0  0  0  1  0  0
    7.5110    2.1800    2.8430 H   0  0  0  1  0  0
   -5.9630   -2.2850   -4.4320 H   0  0  0  1  0  0
   -6.0920   -3.7250   -5.4930 H   0  0  0  1  0  0
    5.1770    2.2920    4.1640 H   0  0  0  1  0  0
    6.9560   -0.1470    4.7610 H   0  0  0  1  0  0
    3.5050    1.0760    5.5590 H   0  0  0  1  0  0
    4.7150   -0.1730    5.9190 H   0  0  0  1  0  0
    4.9400    1.4760    6.4970 H   0  0  0  1  0  0
    7.2430    3.8480    0.9800 H   0  0  0  1  0  0
    7.1120    4.9580   -1.9850 H   0  0  0  1  0  0
   -8.3080   -1.4270   -1.2230 H   0  0  0  1  0  0
    2.5800    3.8870   -4.9970 H   0  0  0  1  0  0
   -9.0020   -4.7940   -4.3700 H   0  0  0  1  0  0
   -5.6750   -6.5430   -2.5450 H   0  0  0  1  0  0
    6.5160   -1.4340    1.2830 H   0  0  0  1  0  0
    9.2590    0.9470    2.2500 H   0  0  0  1  0  0
   -4.3270   -2.3970   -5.9880 H   0  0  0  1  0  0
    7.2430    1.3100    6.2880 H   0  0  0  1  0  0
  1 23  1  0
  1 38  1  0
  2 36  1  0
  2 41  1  0
  3 36  2  0
  4 38  1  0
  4 42  1  0
  5 39  1  0
  5 46  1  0
  6 41  1  0
  6 48  1  0
  7 40  1  0
  7106  1  0
  8 43  1  0
  8107  1  0
  9 44  1  0
  9108  1  0
 10 46  1  0
 10 53  1  0
 11 45  1  0
 11109  1  0
 12 47  1  0
 12110  1  0
 13 49  1  0
 13111  1  0
 14 50  1  0
 14112  1  0
 15 51  1  0
 15113  1  0
 16 52  1  0
 16114  1  0
 17 54  1  0
 17115  1  0
 18 19  1  0
 18 22  1  0
 18 24  1  0
 18 26  1  0
 19 20  1  0
 19 25  1  0
 19 56  1  0
 20 21  1  0
 20 29  1  0
 20 32  1  0
 21 27  1  0
 21 28  1  0
 21 57  1  0
 22 23  1  0
 22 58  1  0
 22 59  1  0
 23 30  1  0
 23 31  1  0
 24 27  1  0
 24 60  1  0
 24 61  1  0
 25 30  1  0
 25 62  1  0
 25 63  1  0
 26 31  1  0
 26 64  1  0
 26 65  1  0
 27 66  1  0
 27 67  1  0
 28 33  1  0
 28 35  1  0
 28 36  1  0
 29 34  1  0
 29 68  1  0
 29 69  1  0
 30 70  1  0
 30 71  1  0
 31 37  2  0
 32 72  1  0
 32 73  1  0
 32 74  1  0
 33 34  1  0
 33 75  1  0
 33 76  1  0
 34 77  1  0
 34 78  1  0
 35 79  1  0
 35 80  1  0
 35 81  1  0
 37 82  1  0
 37 83  1  0
 38 39  1  0
 38 84  1  0
 39 40  1  0
 39 85  1  0
 40 43  1  0
 40 86  1  0
 41 44  1  0
 41 87  1  0
 42 43  1  0
 42 45  1  0
 42 88  1  0
 43 89  1  0
 44 47  1  0
 44 90  1  0
 45 91  1  0
 45 92  1  0
 46 50  1  0
 46 93  1  0
 47 49  1  0
 47 94  1  0
 48 49  1  0
 48 52  1  0
 48 95  1  0
 49 96  1  0
 50 51  1  0
 50 97  1  0
 51 54  1  0
 51 98  1  0
 52 99  1  0
 52100  1  0
 53 54  1  0
 53 55  1  0
 53101  1  0
 54102  1  0
 55103  1  0
 55104  1  0
 55105  1  0
M  END
> <Name>
72941582

> <AbsoluteEnergy>
73.9166

> <ConfNumber>
1

> <IonizationIndex>
1

> <NumberOfIonizations>
1

> <NumberOfStereoisomers>
1

> <NumberOfTautomers>
1

> <OBJECTID>
9223374635313332237

> <PUBCHEM_ATOM_DEF_STEREO_COUNT>
21

> <PUBCHEM_ATOM_UDEF_STEREO_COUNT>
0

> <PUBCHEM_BONDANNOTATIONS>
23  1  6
38  1  5
47  12  6
49  13  5
50  14  6
51  15  6
54  17  5
18  24  6
19  56  5
41  2  6
20  32  6
21  57  5
28  35  5
42  45  5
48  52  6
39  5  6
46  5  5
53  55  6
40  7  5
43  8  6
44  9  5

> <PUBCHEM_BOND_DEF_STEREO_COUNT>
0

> <PUBCHEM_BOND_UDEF_STEREO_COUNT>
0

> <PUBCHEM_CACTVS_COMPLEXITY>
1430

> <PUBCHEM_CACTVS_HBOND_ACCEPTOR>
17

> <PUBCHEM_CACTVS_HBOND_DONOR>
10

> <PUBCHEM_CACTVS_ROTATABLE_BOND>
9

> <PUBCHEM_CACTVS_SUBSKEYS>
AAADcfB8PgAAAAAAAAAAAAAAAAAAAYAAAAA0aNECBgAAAADAAAAAGgAACAAAD1SwgAMCCAAABgCIAgDSCAAAAAAgAAAAAAEAAAgRFBIAIQAiQAAFgAAHIAHI6PyPgAAAAAAAAADAAAYAACAAAYAAAAAAAA==

> <PUBCHEM_CACTVS_TAUTO_COUNT>
1

> <PUBCHEM_CACTVS_TPSA>
275

> <PUBCHEM_COMPONENT_COUNT>
1

> <PUBCHEM_COMPOUND_CANONICALIZED>
1

> <PUBCHEM_COMPOUND_CID>
72941582

> <PUBCHEM_COORDINATE_TYPE>
1
5
255

> <PUBCHEM_EXACT_MASS>
788.38305044

> <PUBCHEM_HEAVY_ATOM_COUNT>
55

> <PUBCHEM_ISOTOPIC_ATOM_COUNT>
0

> <PUBCHEM_IUPAC_CAS_NAME>
(1R,4S,5R,9S,10R,13S)-13-[[(2S,3R,4S,5S,6R)-4,5-dihydroxy-6-(hydroxymethyl)-3-[[(2S,3R,4R,5R,6S)-3,4,5-trihydroxy-6-methyl-2-oxanyl]oxy]-2-oxanyl]oxy]-5,9-dimethyl-14-methylene-5-tetracyclo[11.2.1.01,
10.04,9]hexadecanecarboxylic acid [(2S,3R,4S,5S,6R)-3,4,5-trihydroxy-6-(hydroxymethyl)-2-oxanyl] ester

> <PUBCHEM_IUPAC_INCHI>
InChI=1S/C38H60O17/c1-16-12-37-10-6-20-35(3,8-5-9-36(20,4)34(49)54-32-29(48)26(45)23(42)18(13-39)51-32)21(37)7-11-38(16,15-37)55-33-30(27(46)24(43)19(14-40)52-33)53-31-28(47)25(44)22(41)17(2)50-31/h17
-33,39-48H,1,5-15H2,2-4H3/t17-,18+,19+,20-,21-,22-,23+,24+,25+,26-,27-,28+,29+,30+,31-,32-,33-,35+,36+,37+,38-/m0/s1

> <PUBCHEM_IUPAC_INCHIKEY>
CANAPGLEBDTCAF-NTIPNFSCSA-N

> <PUBCHEM_IUPAC_NAME>
[(2S,3R,4S,5S,6R)-3,4,5-trihydroxy-6-(hydroxymethyl)oxan-2-yl] (1R,4S,5R,9S,10R,13S)-13-[(2S,3R,4S,5S,6R)-4,5-dihydroxy-6-(hydroxymethyl)-3-[(2S,3R,4R,5R,6S)-3,4,5-trihydroxy-6-methyloxan-2-yl]oxyoxan
-2-yl]oxy-5,9-dimethyl-14-methylidenetetracyclo[11.2.1.01,10.04,9]hexadecane-5-carboxylate

> <PUBCHEM_IUPAC_NAME_MARKUP>
[(2<I>S</I>,3<I>R</I>,4<I>S</I>,5<I>S</I>,6<I>R</I>)-3,4,5-trihydroxy-6-(hydroxymethyl)oxan-2-yl] (1<I>R</I>,4<I>S</I>,5<I>R</I>,9<I>S</I>,10<I>R</I>,13<I>S</I>)-13-[(2<I>S</I>,3<I>R</I>,4<I>S</I>,5<I
>S</I>,6<I>R</I>)-4,5-dihydroxy-6-(hydroxymethyl)-3-[(2<I>S</I>,3<I>R</I>,4<I>R</I>,5<I>R</I>,6<I>S</I>)-3,4,5-trihydroxy-6-methyloxan-2-yl]oxyoxan-2-yl]oxy-5,9-dimethyl-14-methylidenetetracyclo[11.2.
1.0<SUP>1,10</SUP>.0<SUP>4,9</SUP>]hexadecane-5-carboxylate

> <PUBCHEM_IUPAC_OPENEYE_NAME>
[(2S,3R,4S,5S,6R)-3,4,5-trihydroxy-6-(hydroxymethyl)tetrahydropyran-2-yl] (1R,4S,5R,9S,10R,13S)-13-[(2S,3R,4S,5S,6R)-4,5-dihydroxy-6-(hydroxymethyl)-3-[(2S,3R,4R,5R,6S)-3,4,5-trihydroxy-6-methyl-tetra
hydropyran-2-yl]oxy-tetrahydropyran-2-yl]oxy-5,9-dimethyl-14-methylene-tetracyclo[11.2.1.01,10.04,9]hexadecane-5-carboxylate

> <PUBCHEM_IUPAC_SYSTEMATIC_NAME>
[(2S,3R,4S,5S,6R)-6-(hydroxymethyl)-3,4,5-tris(oxidanyl)oxan-2-yl] (1R,4S,5R,9S,10R,13S)-13-[(2S,3R,4S,5S,6R)-6-(hydroxymethyl)-3-[(2S,3R,4R,5R,6S)-6-methyl-3,4,5-tris(oxidanyl)oxan-2-yl]oxy-4,5-bis(o
xidanyl)oxan-2-yl]oxy-5,9-dimethyl-14-methylidene-tetracyclo[11.2.1.01,10.04,9]hexadecane-5-carboxylate

> <PUBCHEM_IUPAC_TRADITIONAL_NAME>
(1R,4S,5R,9S,10R,13S)-13-[(2S,3R,4S,5S,6R)-4,5-dihydroxy-6-methylol-3-[(2S,3R,4R,5R,6S)-3,4,5-trihydroxy-6-methyl-tetrahydropyran-2-yl]oxy-tetrahydropyran-2-yl]oxy-5,9-dimethyl-14-methylene-tetracyclo
[11.2.1.01,10.04,9]hexadecane-5-carboxylic acid [(2S,3R,4S,5S,6R)-3,4,5-trihydroxy-6-methylol-tetrahydropyran-2-yl] ester

> <PUBCHEM_MOLECULAR_FORMULA>
C38H60O17

> <PUBCHEM_MOLECULAR_WEIGHT>
788.9

> <PUBCHEM_MONOISOTOPIC_WEIGHT>
788.38305044

> <PUBCHEM_OPENEYE_CAN_SMILES>
CC1C(C(C(C(O1)OC2C(C(C(OC2OC34CCC5C6(CCCC(C6CCC5(C3)CC4=C)(C)C(=O)OC7C(C(C(C(O7)CO)O)O)O)C)CO)O)O)O)O)O

> <PUBCHEM_OPENEYE_ISO_SMILES>
C[C@H]1[C@@H]([C@H]([C@H]([C@@H](O1)O[C@@H]2[C@H]([C@@H]([C@H](O[C@H]2O[C@@]34CC[C@H]5[C@@]6(CCC[C@@]([C@H]6CC[C@]5(C3)CC4=C)(C)C(=O)O[C@H]7[C@@H]([C@H]([C@@H]([C@H](O7)CO)O)O)O)C)CO)O)O)O)O)O

> <PUBCHEM_TOTAL_CHARGE>
0

> <PUBCHEM_XLOGP3_AA>
-0.7

> <RelativeEnergy>
0

> <StereoisomerIndex>
1

> <TautomerIndex>
1

> <LibDock Warning>
no hit found

> <ErrorText>
LibDock failed

$$$$
122363513
  SciTegic09112317153D

 48 49  0  0  0  0            999 V2000
   -1.5460   -2.2360   -1.3200 O   0  0  0  1  0  0
    0.2440    1.2640    1.4670 O   0  0  0  1  0  0
   -1.5440   -2.6920    3.3050 O   0  0  0  1  0  0
   -0.6320   -0.1430   -2.4630 O   0  0  0  1  0  0
    2.8860    7.4330   -1.9310 O   0  0  0  1  0  0
   -2.2270   -3.8640    0.8750 C   0  0  0  1  0  0
   -1.5730   -2.5090    0.9830 C   0  0  0  1  0  0
   -1.2790   -4.9260    0.3180 C   0  0  0  1  0  0
   -1.2690   -1.7480   -0.2480 C   0  0  0  1  0  0
   -0.6310   -0.4050   -0.1370 C   0  0  0  1  0  0
   -1.2720   -2.0050    2.1980 C   0  0  0  1  0  0
   -0.3270    0.0830    1.2420 C   0  0  0  1  0  0
   -0.0710   -5.1300    1.1910 C   0  0  0  1  0  0
   -0.6340   -0.6790    2.3130 C   0  0  0  1  0  0
   -0.3490    0.3240   -1.2480 C   0  0  0  1  0  0
    1.1090   -4.1960    1.1880 C   0  0  0  1  0  0
    0.2780    1.6550   -1.1980 C   0  0  0  1  0  0
   -0.0420   -6.1930    2.0100 C   0  0  0  1  0  0
    0.4740    2.3630   -2.3210 C   0  0  0  1  0  0
    1.1140    3.7090   -2.2170 C   0  0  0  1  0  0
   -0.4730    2.0430    2.4120 C   0  0  0  1  0  0
    0.9370    4.6530   -3.2440 C   0  0  0  1  0  0
    1.8950    4.0330   -1.0950 C   0  0  0  1  0  0
    1.5400    5.9200   -3.1450 C   0  0  0  1  0  0
    2.4970    5.3000   -0.9970 C   0  0  0  1  0  0
    2.3210    6.2460   -2.0230 C   0  0  0  1  0  0
   -2.5240   -4.2120    1.8630 H   0  0  0  1  0  0
   -3.1260   -3.7920    0.2620 H   0  0  0  1  0  0
   -0.9700   -4.5700   -0.6660 H   0  0  0  1  0  0
   -1.8000   -5.8740    0.1800 H   0  0  0  1  0  0
   -0.4040   -0.3070    3.3010 H   0  0  0  1  0  0
    2.0710   -4.7090    1.1840 H   0  0  0  1  0  0
    1.0790   -3.5570    2.0710 H   0  0  0  1  0  0
    1.0700   -3.5510    0.3090 H   0  0  0  1  0  0
    0.6100    2.1310   -0.2870 H   0  0  0  1  0  0
   -0.8070   -6.9480    2.1230 H   0  0  0  1  0  0
    0.8490   -6.2910    2.6130 H   0  0  0  1  0  0
    0.2040    2.0360   -3.3130 H   0  0  0  1  0  0
    0.0340    3.0010    2.5200 H   0  0  0  1  0  0
   -1.5170    2.0810    2.1020 H   0  0  0  1  0  0
   -0.4310    1.5330    3.3770 H   0  0  0  1  0  0
    0.3380    4.4140   -4.1110 H   0  0  0  1  0  0
    2.0370    3.3120   -0.3000 H   0  0  0  1  0  0
    1.4000    6.6420   -3.9360 H   0  0  0  1  0  0
    3.0950    5.5440   -0.1330 H   0  0  0  1  0  0
   -1.3230   -2.3120    4.1640 H   0  0  0  1  0  0
    3.4200    7.6440   -1.1530 H   0  0  0  1  0  0
   -1.5150   -0.4970   -2.6400 H   0  0  0  1  0  0
  1  9  2  0
  2 12  1  0
  2 21  1  0
  3 11  1  0
  3 46  1  0
  4 15  1  0
  4 48  1  0
  5 26  1  0
  5 47  1  0
  6  7  1  0
  6  8  1  0
  6 27  1  0
  6 28  1  0
  7  9  1  0
  7 11  2  0
  8 13  1  0
  8 29  1  0
  8 30  1  0
  9 10  1  0
 10 12  1  0
 10 15  2  0
 11 14  1  0
 12 14  2  0
 13 16  1  0
 13 18  2  0
 14 31  1  0
 15 17  1  0
 16 32  1  0
 16 33  1  0
 16 34  1  0
 17 19  2  0
 17 35  1  0
 18 36  1  0
 18 37  1  0
 19 20  1  0
 19 38  1  0
 20 22  2  0
 20 23  1  0
 21 39  1  0
 21 40  1  0
 21 41  1  0
 22 24  1  0
 22 42  1  0
 23 25  2  0
 23 43  1  0
 24 26  2  0
 24 44  1  0
 25 26  1  0
 25 45  1  0
M  END
> <Name>
122363513

> <AbsoluteEnergy>
61.9405

> <ConfNumber>
1

> <Ionization pH>
7.5

> <IonizationIndex>
1

> <NumberOfIonizations>
1

> <NumberOfStereoisomers>
1

> <NumberOfTautomers>
4

> <OBJECTID>
9223374768457318413

> <PUBCHEM_ATOM_DEF_STEREO_COUNT>
0

> <PUBCHEM_ATOM_UDEF_STEREO_COUNT>
0

> <PUBCHEM_BOND_DEF_STEREO_COUNT>
1

> <PUBCHEM_BOND_UDEF_STEREO_COUNT>
0

> <PUBCHEM_CACTVS_TAUTO_COUNT>
419

> <PUBCHEM_COMPONENT_COUNT>
1

> <PUBCHEM_COMPOUND_CID>
122363513

> <PUBCHEM_CONFORMER_DIVERSEORDER>
1
38
98
37
89
35
94
67
80
84
105
70
45
87
71
76
100
99
11
57
79
107
20
30
13
74
104
102
91
48
101
109
103
59
106
14
68
62
42
46
82
56
51
16
2
108
41
50
86
97
69
92
60
22
78
83
81
44
34
54
110
15
36
93
64
88
32
75
23
4
10
90
31
73
33
85
47
18
43
49
95
8
5
19
55
24
66
27
96
7
65
29
72
17
21
6
39
58
77
9
52
53
40
63
26
12
3
25
28
61

> <PUBCHEM_CONFORMER_ID>
074B1E7900000001

> <PUBCHEM_CONFORMER_RMSD>
0.8

> <PUBCHEM_COORDINATE_TYPE>
2
5
10

> <PUBCHEM_EFFECTIVE_ROTOR_COUNT>
7

> <PUBCHEM_FEATURE_SELFOVERLAP>
35.522

> <PUBCHEM_HEAVY_ATOM_COUNT>
26

> <PUBCHEM_ISOTOPIC_ATOM_COUNT>
0

> <PUBCHEM_MMFF94_ENERGY>
84.3575

> <PUBCHEM_MMFF94_PARTIAL_CHARGES>
38
1 -0.53
10 0.09
11 0.08
12 0.08
13 -0.28
14 -0.15
15 0.47
16 0.14
17 -0.14
18 -0.3
19 -0.18
2 -0.36
20 0.03
21 0.28
22 -0.15
23 -0.15
24 -0.15
25 -0.15
26 0.08
3 -0.53
31 0.15
35 0.45
36 0.15
37 0.15
38 0.15
39 0.45
4 -0.57
40 0.15
44 0.15
45 0.15
46 0.15
47 0.15
48 0.45
5 -0.53
6 0.14
7 -0.14
8 0.14
9 0.08

> <PUBCHEM_PHARMACOPHORE_FEATURES>
7
1 1 donor
1 2 acceptor
1 3 donor
1 4 acceptor
1 5 donor
6 20 22 23 24 25 26 rings
6 7 9 10 11 12 14 rings

> <PUBCHEM_SHAPE_FINGERPRINT>
10 15 12829487087004063564
10165383 225 18059582365233524145
105312 117 18342173349676248126
10577160 183 18340205177636448498
10670039 82 18409726270503341060
107951 10 18342461468994720454
10871710 139 18334007281613155701
11315181 36 16916799526134571402
11578080 2 18127702530633135533
12596602 18 16153428337490410385
12633257 1 15502669195046197710
14251757 5 18340491170216855060
14341114 176 13695861537628052090
14713325 29 18408609188528802155
14844126 61 10665232566238788417
15163728 17 18265619792557747327
15183329 4 17775291538869742962
15188451 53 9439399103771721240
15463212 79 18337098042641932563
15575132 122 18333725802220158653
17980427 23 17676494929745179485
19958102 18 18201995543031531078
200 152 14548747226530887234
20101258 96 18120939666396871587
21033650 10 18411985767151563616
21756936 100 17967818270965921018
22122407 14 17458641037587451004
22393880 68 17989483052601692786
23198884 109 18410294752649134470
23559900 14 17060053796278857530
255183 451 17480285104822776087
2838139 119 18334853922751641616
312425 54 7853309643484776540
4015057 19 16271642399286533242
445580 204 18186522120737373932
46194498 28 17701810206017570632
5104073 3 12468895595428094044
5283173 99 18273212010937791624
53794403 172 17256242640862760517
57527293 21 18191867813528003089
57527585 21 17980455907909902149
59755656 520 17203063910665343155
633830 44 17750231426541448050
6608658 132 18260258664039558237
7237137 82 18273206517600416039
7808743 9 18338790114207475889

> <PUBCHEM_SHAPE_MULTIPOLES>
505.72
14.37
3.46
1.66
22.47
0.13
0.3
10.48
-4.71
-5.01
-0.88
0.53
-0.01
-0.73

> <PUBCHEM_SHAPE_SELFOVERLAP>
1074.107

> <PUBCHEM_SHAPE_VOLUME>
282.1

> <RelativeEnergy>
0

> <StereoisomerIndex>
1

> <TautomerIndex>
3

> <LibDock Warning>
no hit found

> <ErrorText>
LibDock failed

$$$$
126558484
  SciTegic09112317153D

 65 67  0  0  0  0            999 V2000
    0.0620   -0.6540    1.9530 O   0  0  0  1  0  0
    4.1890   -1.7480   -2.1590 O   0  0  0  1  0  0
   -0.8500   -2.3200   -1.7930 O   0  0  0  1  0  0
   -3.6480    0.7170    0.2560 O   0  5  0  1  0  0
   -3.8460   -2.5750   -1.2230 O   0  0  0  1  0  0
    0.3230    0.7700   -1.1510 C   0  0  2  1  0  0
    0.1580   -0.6040   -0.4730 C   0  0  1  1  0  0
    1.8420    1.0040   -1.1830 C   0  0  0  1  0  0
    2.3130   -0.4150   -1.5330 C   0  0  2  1  0  0
    1.5330   -1.2860   -0.5500 C   0  0  0  1  0  0
   -0.5460    1.7610   -0.3370 C   0  0  0  1  0  0
   -1.3120    0.8880    0.6720 C   0  0  2  1  0  0
   -0.3060   -0.2000    0.8930 C   0  0  0  1  0  0
    3.8210   -0.6170   -1.4060 C   0  0  0  1  0  0
   -1.0140   -1.3410   -1.1010 C   0  0  0  1  0  0
    2.4090    1.4440    0.1710 C   0  0  0  1  0  0
    2.2100    1.9950   -2.2830 C   0  0  0  1  0  0
   -2.5340    0.2520    0.0090 C   0  0  0  1  0  0
   -1.6390    1.6780    1.9380 C   0  0  0  1  0  0
   -2.3770   -0.8060   -0.8300 C   0  0  0  1  0  0
    4.5490    0.5990   -1.9810 C   0  0  0  1  0  0
    4.1790   -0.8780    0.0580 C   0  0  0  1  0  0
   -0.4050    2.1190    2.6760 C   0  0  0  1  0  0
   -3.5450   -1.4320   -1.4750 C   0  0  0  1  0  0
   -4.3480   -0.6200   -2.4550 C   0  0  0  1  0  0
   -0.3110    1.8540    3.9890 C   0  0  0  1  0  0
   -5.7980   -0.4310   -2.0040 C   0  0  0  1  0  0
   -4.2400   -1.1510   -3.8850 C   0  0  0  1  0  0
    0.8920    2.1300    4.8480 C   0  0  0  1  0  0
   -1.4930    1.2270    4.6800 C   0  0  0  1  0  0
   -0.0440    0.7240   -2.1690 H   0  0  0  1  0  0
    2.0130   -0.6650   -2.5430 H   0  0  0  1  0  0
    2.0190   -1.2930    0.4150 H   0  0  0  1  0  0
    1.4810   -2.3130   -0.8820 H   0  0  0  1  0  0
   -1.2130    2.3270   -0.9720 H   0  0  0  1  0  0
    0.0750    2.4830    0.1750 H   0  0  0  1  0  0
    2.1080    2.4580    0.4270 H   0  0  0  1  0  0
    3.5000    1.4130    0.1590 H   0  0  0  1  0  0
    2.0660    0.7810    0.9650 H   0  0  0  1  0  0
    1.4330    2.7470   -2.4280 H   0  0  0  1  0  0
    2.3550    1.4800   -3.2330 H   0  0  0  1  0  0
    3.1370    2.5160   -2.0390 H   0  0  0  1  0  0
   -2.2250    1.0060    2.5680 H   0  0  0  1  0  0
   -2.2600    2.5410    1.7030 H   0  0  0  1  0  0
    4.1420    0.8960   -2.9480 H   0  0  0  1  0  0
    5.6090    0.3850   -2.1180 H   0  0  0  1  0  0
    4.4650    1.4530   -1.3080 H   0  0  0  1  0  0
    4.0590   -1.9290    0.3240 H   0  0  0  1  0  0
    3.5410   -0.2930    0.7200 H   0  0  0  1  0  0
    5.2120   -0.6000    0.2580 H   0  0  0  1  0  0
    0.4390    2.6440    2.2500 H   0  0  0  1  0  0
   -3.7870    0.3080   -2.3440 H   0  0  0  1  0  0
   -6.3520   -1.3680   -2.0170 H   0  0  0  1  0  0
   -6.3150    0.2720   -2.6580 H   0  0  0  1  0  0
   -5.8380   -0.0340   -0.9890 H   0  0  0  1  0  0
   -3.1950   -1.2310   -4.1860 H   0  0  0  1  0  0
   -4.7090   -2.1300   -3.9680 H   0  0  0  1  0  0
   -4.7400   -0.4830   -4.5840 H   0  0  0  1  0  0
    1.6270    2.7810    4.3730 H   0  0  0  1  0  0
    1.3910    1.1940    5.1030 H   0  0  0  1  0  0
    0.5810    2.6050    5.7800 H   0  0  0  1  0  0
   -1.7120    0.2160    4.3360 H   0  0  0  1  0  0
   -2.3830    1.8360    4.5160 H   0  0  0  1  0  0
   -1.3130    1.1820    5.7540 H   0  0  0  1  0  0
    3.6550   -2.4930   -1.8370 H   0  0  0  1  0  0
  1 13  2  0
  2 14  1  0
  2 65  1  0
  3 15  2  0
  4 18  1  0
  5 24  2  0
  6  7  1  0
  6  8  1  0
  6 11  1  0
  6 31  1  0
  7 10  1  0
  7 13  1  0
  7 15  1  0
  8  9  1  0
  8 16  1  0
  8 17  1  0
  9 10  1  0
  9 14  1  0
  9 32  1  0
 10 33  1  0
 10 34  1  0
 11 12  1  0
 11 35  1  0
 11 36  1  0
 12 13  1  0
 12 18  1  0
 12 19  1  0
 14 21  1  0
 14 22  1  0
 15 20  1  0
 16 37  1  0
 16 38  1  0
 16 39  1  0
 17 40  1  0
 17 41  1  0
 17 42  1  0
 18 20  2  0
 19 23  1  0
 19 43  1  0
 19 44  1  0
 20 24  1  0
 21 45  1  0
 21 46  1  0
 21 47  1  0
 22 48  1  0
 22 49  1  0
 22 50  1  0
 23 26  2  0
 23 51  1  0
 24 25  1  0
 25 27  1  0
 25 28  1  0
 25 52  1  0
 26 29  1  0
 26 30  1  0
 27 53  1  0
 27 54  1  0
 27 55  1  0
 28 56  1  0
 28 57  1  0
 28 58  1  0
 29 59  1  0
 29 60  1  0
 29 61  1  0
 30 62  1  0
 30 63  1  0
 30 64  1  0
M  CHG  1   4  -1
M  END
> <Name>
126558484

> <AbsoluteEnergy>
73.9212

> <ConfNumber>
1

> <Ionization pH>
7.5

> <IonizationIndex>
1

> <NumberOfIonizations>
1

> <NumberOfStereoisomers>
1

> <NumberOfTautomers>
1

> <OBJECTID>
9223374815701958669

> <PUBCHEM_ATOM_DEF_STEREO_COUNT>
2

> <PUBCHEM_ATOM_UDEF_STEREO_COUNT>
2

> <PUBCHEM_BOND_DEF_STEREO_COUNT>
0

> <PUBCHEM_BOND_UDEF_STEREO_COUNT>
0

> <PUBCHEM_CACTVS_TAUTO_COUNT>
7

> <PUBCHEM_COMPONENT_COUNT>
1

> <PUBCHEM_COMPOUND_CID>
126558484

> <PUBCHEM_CONFORMER_DIVERSEORDER>
6
72
61
16
50
78
69
45
80
47
71
30
12
52
66
51
49
32
76
79
65
60
67
48
28
77
36
57
35
55
59
46
19
24
38
54
63
9
18
56
73
31
42
27
53
74
25
34
8
75
58
68
70
44
43
20
21
62
64
15
39
29
33
2
5
17
37
10
14
23
7
26
13
3
40
41
22
1
4
11

> <PUBCHEM_CONFORMER_ID>
078B211400000006

> <PUBCHEM_CONFORMER_RMSD>
0.8

> <PUBCHEM_COORDINATE_TYPE>
2
5
10

> <PUBCHEM_EFFECTIVE_ROTOR_COUNT>
5.8

> <PUBCHEM_FEATURE_SELFOVERLAP>
60.947

> <PUBCHEM_HEAVY_ATOM_COUNT>
30

> <PUBCHEM_ISOTOPIC_ATOM_COUNT>
0

> <PUBCHEM_MMFF94_ENERGY>
116.9463

> <PUBCHEM_MMFF94_PARTIAL_CHARGES>
22
1 -0.57
12 0.2
13 0.45
14 0.28
15 0.49
18 -0.06
19 0.14
2 -0.68
20 0.03
23 -0.29
24 0.49
25 0.06
26 -0.28
29 0.14
3 -0.57
30 0.14
4 -0.53
5 -0.57
51 0.4
52 0.15
53 0.45
7 0.12

> <PUBCHEM_PHARMACOPHORE_FEATURES>
12
1 1 acceptor
1 2 acceptor
1 2 donor
1 3 acceptor
1 4 donor
1 5 acceptor
3 14 21 22 hydrophobe
3 25 27 28 hydrophobe
3 26 29 30 hydrophobe
3 8 16 17 hydrophobe
5 6 7 8 9 10 rings
8 6 7 11 12 13 15 18 20 rings

> <PUBCHEM_SHAPE_FINGERPRINT>
11578080 2 18046039804166756892
11582403 64 17126160665693892504
11763715 3 18046932616556732412
12107183 9 17828476978279954394
12160290 23 18196121930266567345
12173636 292 18266458702813655445
12422481 6 17173769441993802032
12553582 1 18052553354094625319
12788726 201 18263102031157693052
13004483 165 18337678632341977883
13009979 54 18188215423977570294
13134695 92 17906166605176184431
13140716 1 18335991977162536187
13540713 5 17967253071161760166
13583140 156 17917422125911593474
13690498 29 18267891495835503686
14294032 229 18339088064826667585
14508225 48 18125712633308459295
14790565 3 17903643986563945332
14955137 171 18046081603516293443
15081414 286 16537642458352883657
15219462 58 17622107621895849138
15420108 30 17903903475264866570
15439362 3 17184752394423396469
15664445 248 17618789501576684456
15775530 1 17986931119903853105
15878777 1 17609732626824728707
16087824 20 18410294706248213963
16945 1 18340783579816252587
17349148 13 17896036727646208986
17980427 26 16401061252440807392
1813 80 17912099544250255319
20600515 1 17914919718755741849
20775438 99 17478563200824922565
21033648 29 18197490723902857176
21304303 282 18195219175512228133
23366157 5 17257094191126727115
23419403 2 17487601159970480337
23559900 14 18202291320855653870
23929065 36 18196345157318920032
24941158 1 17114062000482033159
25222932 49 15967279902717668957
255183 313 18200609029325893251
376196 1 17538002463888048609
38695281 34 17905884777821854764
4017518 198 17695616360814200054
4409770 3 18410288082601554499
463206 1 17974854183264520994
59755656 520 17843140111822650576
7164475 11 18337396057980136126
9981440 41 17978228262369453089

> <PUBCHEM_SHAPE_MULTIPOLES>
588.04
7.88
6.69
1.61
9.96
0.83
0.31
-2.9
1.24
-12.54
1.8
0.28
-0.21
-0.68

> <PUBCHEM_SHAPE_SELFOVERLAP>
1253.82

> <PUBCHEM_SHAPE_VOLUME>
331.7

> <RelativeEnergy>
0

> <StereoisomerIndex>
1

> <TautomerIndex>
1

> <LibDock Warning>
no hit found

> <ErrorText>
LibDock failed

$$$$
289
  SciTegic09112317153D

 14 14  0  0  0  0            999 V2000
    0.9220   -2.2490    0.0000 O   0  0  0  1  0  0
    2.3080    0.1130    0.0000 O   0  0  0  1  0  0
    0.2770   -1.1000    0.0000 C   0  0  0  1  0  0
    0.9900    0.1150    0.0000 C   0  0  0  1  0  0
   -1.1290   -1.0860    0.0000 C   0  0  0  1  0  0
    0.2920    1.3360    0.0000 C   0  0  0  1  0  0
   -1.8240    0.1350    0.0000 C   0  0  0  1  0  0
   -1.1130    1.3470    0.0000 C   0  0  0  1  0  0
   -1.6780   -2.0160    0.0000 H   0  0  0  1  0  0
    0.8360    2.2690    0.0000 H   0  0  0  1  0  0
   -2.9040    0.1420    0.0000 H   0  0  0  1  0  0
   -1.6460    2.2860    0.0000 H   0  0  0  1  0  0
    1.8880   -2.2490    0.0000 H   0  0  0  1  0  0
    2.7810    0.9550    0.0000 H   0  0  0  1  0  0
  1  3  1  0
  1 13  1  0
  2  4  1  0
  2 14  1  0
  3  4  2  0
  3  5  1  0
  4  6  1  0
  5  7  2  0
  5  9  1  0
  6  8  2  0
  6 10  1  0
  7  8  1  0
  7 11  1  0
  8 12  1  0
M  END
> <Name>
289

> <AbsoluteEnergy>
11.9397

> <ConfNumber>
1

> <Ionization pH>
7.5

> <IonizationIndex>
1

> <NumberOfIonizations>
1

> <NumberOfStereoisomers>
1

> <NumberOfTautomers>
1

> <OBJECTID>
9223374871536533517

> <PUBCHEM_ATOM_DEF_STEREO_COUNT>
0

> <PUBCHEM_ATOM_UDEF_STEREO_COUNT>
0

> <PUBCHEM_BONDANNOTATIONS>
3  4  8
3  5  8
4  6  8
5  7  8
6  8  8
7  8  8

> <PUBCHEM_BOND_DEF_STEREO_COUNT>
0

> <PUBCHEM_BOND_UDEF_STEREO_COUNT>
0

> <PUBCHEM_CACTVS_COMPLEXITY>
62.9

> <PUBCHEM_CACTVS_HBOND_ACCEPTOR>
2

> <PUBCHEM_CACTVS_HBOND_DONOR>
2

> <PUBCHEM_CACTVS_ROTATABLE_BOND>
0

> <PUBCHEM_CACTVS_SUBSKEYS>
AAADcYBgMAAAAAAAAAAAAAAAAAAAAAAAAAAwAAAAAAAAAAABAAAAGgAACAAACASAkAAwBoAAAgCAACBCAAACAAAgIAAIiAAGiIgJJiKCERKAcAEkwBEJmAeAQAAAAAAAAAAAQAAAAAAAAACAAAAAAAAAAA==

> <PUBCHEM_CACTVS_TAUTO_COUNT>
-1

> <PUBCHEM_CACTVS_TPSA>
40.5

> <PUBCHEM_COMPONENT_COUNT>
1

> <PUBCHEM_COMPOUND_CANONICALIZED>
1

> <PUBCHEM_COMPOUND_CID>
289

> <PUBCHEM_COORDINATE_TYPE>
1
5
255

> <PUBCHEM_EXACT_MASS>
110.03677943

> <PUBCHEM_HEAVY_ATOM_COUNT>
8

> <PUBCHEM_ISOTOPIC_ATOM_COUNT>
0

> <PUBCHEM_IUPAC_CAS_NAME>
benzene-1,2-diol

> <PUBCHEM_IUPAC_INCHI>
InChI=1S/C6H6O2/c7-5-3-1-2-4-6(5)8/h1-4,7-8H

> <PUBCHEM_IUPAC_INCHIKEY>
YCIMNLLNPGFGHC-UHFFFAOYSA-N

> <PUBCHEM_IUPAC_NAME>
benzene-1,2-diol

> <PUBCHEM_IUPAC_NAME_MARKUP>
benzene-1,2-diol

> <PUBCHEM_IUPAC_OPENEYE_NAME>
benzene-1,2-diol

> <PUBCHEM_IUPAC_SYSTEMATIC_NAME>
benzene-1,2-diol

> <PUBCHEM_IUPAC_TRADITIONAL_NAME>
pyrocatechol

> <PUBCHEM_MOLECULAR_FORMULA>
C6H6O2

> <PUBCHEM_MOLECULAR_WEIGHT>
110.11

> <PUBCHEM_MONOISOTOPIC_WEIGHT>
110.03677943

> <PUBCHEM_OPENEYE_CAN_SMILES>
C1=CC=C(C(=C1)O)O

> <PUBCHEM_OPENEYE_ISO_SMILES>
C1=CC=C(C(=C1)O)O

> <PUBCHEM_TOTAL_CHARGE>
0

> <PUBCHEM_XLOGP3>
0.9

> <RelativeEnergy>
0

> <StereoisomerIndex>
1

> <TautomerIndex>
1

> <LibDock Warning>
no hit found

> <ErrorText>
LibDock failed

$$$$
340
  SciTegic09112317153D

 17 17  0  0  0  0            999 V2000
   -2.1820    0.2950    0.0030 O   0  0  0  1  0  0
   -0.8960    2.7010    0.0030 O   0  0  0  1  0  0
   -0.1130   -0.8550    0.0030 C   0  0  0  1  0  0
   -0.8650    0.3380    0.0030 C   0  0  0  1  0  0
    1.2910   -0.8030    0.0030 C   0  0  0  1  0  0
   -0.2030    1.5800    0.0030 C   0  0  0  1  0  0
   -0.8010   -2.1740    0.0030 C   0  0  0  1  0  0
    1.9490    0.4380    0.0030 C   0  0  0  1  0  0
    1.2010    1.6270    0.0030 C   0  0  0  1  0  0
    1.8690   -1.7150    0.0030 H   0  0  0  1  0  0
   -0.0570   -2.9710   -0.0570 H   0  0  0  1  0  0
   -1.4340   -2.2560    0.8860 H   0  0  0  1  0  0
   -1.4410   -2.2500   -0.8760 H   0  0  0  1  0  0
    3.0270    0.4790    0.0030 H   0  0  0  1  0  0
    1.7090    2.5820    0.0030 H   0  0  0  1  0  0
   -2.6270   -0.5640    0.0030 H   0  0  0  1  0  0
   -0.4280    3.5470    0.0030 H   0  0  0  1  0  0
  1  4  1  0
  1 16  1  0
  2  6  1  0
  2 17  1  0
  3  4  2  0
  3  5  1  0
  3  7  1  0
  4  6  1  0
  5  8  2  0
  5 10  1  0
  6  9  2  0
  7 11  1  0
  7 12  1  0
  7 13  1  0
  8  9  1  0
  8 14  1  0
  9 15  1  0
M  END
> <Name>
340

> <AbsoluteEnergy>
13.7351

> <ConfNumber>
1

> <Ionization pH>
7.5

> <IonizationIndex>
1

> <NumberOfIonizations>
1

> <NumberOfStereoisomers>
1

> <NumberOfTautomers>
1

> <OBJECTID>
9223374875831500813

> <PUBCHEM_ATOM_DEF_STEREO_COUNT>
0

> <PUBCHEM_ATOM_UDEF_STEREO_COUNT>
0

> <PUBCHEM_BONDANNOTATIONS>
3  4  8
3  5  8
4  6  8
5  8  8
6  9  8
8  9  8

> <PUBCHEM_BOND_DEF_STEREO_COUNT>
0

> <PUBCHEM_BOND_UDEF_STEREO_COUNT>
0

> <PUBCHEM_CACTVS_COMPLEXITY>
92.9

> <PUBCHEM_CACTVS_HBOND_ACCEPTOR>
2

> <PUBCHEM_CACTVS_HBOND_DONOR>
2

> <PUBCHEM_CACTVS_ROTATABLE_BOND>
0

> <PUBCHEM_CACTVS_SUBSKEYS>
AAADccBgMAAAAAAAAAAAAAAAAAAAAAAAAAAwAAAAAAAAAAABAAAAGgAACAAADASAmAAyBoAAAgCAAiBCAAACAAAgIAAIiAAGiIgJJiKCERKAcAEkwBEJmAeAwDAOAAABAAAIQAAAAAIAABCAAAAAAAAAAA==

> <PUBCHEM_CACTVS_TAUTO_COUNT>
19

> <PUBCHEM_CACTVS_TPSA>
40.5

> <PUBCHEM_COMPONENT_COUNT>
1

> <PUBCHEM_COMPOUND_CANONICALIZED>
1

> <PUBCHEM_COMPOUND_CID>
340

> <PUBCHEM_COORDINATE_TYPE>
1
5
255

> <PUBCHEM_EXACT_MASS>
124.052429494

> <PUBCHEM_HEAVY_ATOM_COUNT>
9

> <PUBCHEM_ISOTOPIC_ATOM_COUNT>
0

> <PUBCHEM_IUPAC_CAS_NAME>
3-methylbenzene-1,2-diol

> <PUBCHEM_IUPAC_INCHI>
InChI=1S/C7H8O2/c1-5-3-2-4-6(8)7(5)9/h2-4,8-9H,1H3

> <PUBCHEM_IUPAC_INCHIKEY>
PGSWEKYNAOWQDF-UHFFFAOYSA-N

> <PUBCHEM_IUPAC_NAME>
3-methylbenzene-1,2-diol

> <PUBCHEM_IUPAC_NAME_MARKUP>
3-methylbenzene-1,2-diol

> <PUBCHEM_IUPAC_OPENEYE_NAME>
3-methylbenzene-1,2-diol

> <PUBCHEM_IUPAC_SYSTEMATIC_NAME>
3-methylbenzene-1,2-diol

> <PUBCHEM_IUPAC_TRADITIONAL_NAME>
3-methylpyrocatechol

> <PUBCHEM_MOLECULAR_FORMULA>
C7H8O2

> <PUBCHEM_MOLECULAR_WEIGHT>
124.14

> <PUBCHEM_MONOISOTOPIC_WEIGHT>
124.052429494

> <PUBCHEM_OPENEYE_CAN_SMILES>
CC1=C(C(=CC=C1)O)O

> <PUBCHEM_OPENEYE_ISO_SMILES>
CC1=C(C(=CC=C1)O)O

> <PUBCHEM_TOTAL_CHARGE>
0

> <PUBCHEM_XLOGP3>
1.8

> <RelativeEnergy>
0

> <StereoisomerIndex>
1

> <TautomerIndex>
1

> <LibDock Warning>
no hit found

> <ErrorText>
LibDock failed

$$$$
790
  SciTegic09112317153D

 15 16  0  0  0  0            999 V2000
    1.5380    2.1230    0.2250 O   0  0  0  1  0  0
   -1.3830    1.3450    0.2320 N   0  0  0  1  0  0
    0.2290   -1.7920   -0.2470 N   0  0  0  1  0  0
   -1.8980   -0.7950   -0.0350 N   0  3  0  1  0  0
    1.9640   -0.1870   -0.0990 N   0  0  0  1  0  0
   -0.2280    0.5830    0.0870 C   0  0  0  1  0  0
   -0.6870   -0.7760   -0.0780 C   0  0  0  1  0  0
    1.0890    0.8780    0.0760 C   0  0  0  1  0  0
   -2.3280    0.4710    0.1500 C   0  0  0  1  0  0
    1.4970   -1.4970   -0.2550 C   0  0  0  1  0  0
   -3.3770    0.7180    0.2220 H   0  0  0  1  0  0
    2.2130   -2.2940   -0.3880 H   0  0  0  1  0  0
   -2.4840   -1.6010   -0.1220 H   0  0  0  1  0  0
    0.9050    2.8420    0.3450 H   0  0  0  1  0  0
    2.9500   -0.0170   -0.1140 H   0  0  0  1  0  0
  1  8  1  0
  1 14  1  0
  2  6  1  0
  2  9  2  0
  3  7  1  0
  3 10  2  0
  4  7  2  0
  4  9  1  0
  4 13  1  0
  5  8  1  0
  5 10  1  0
  5 15  1  0
  6  7  1  0
  6  8  2  0
  9 11  1  0
 10 12  1  0
M  CHG  1   4   1
M  END
> <Name>
790

> <AbsoluteEnergy>
28.5137

> <ConfNumber>
1

> <Ionization pH>
7.5

> <IonizationIndex>
1

> <NumberOfIonizations>
1

> <NumberOfStereoisomers>
1

> <NumberOfTautomers>
5

> <OBJECTID>
9223374888716402701

> <PUBCHEM_ATOM_DEF_STEREO_COUNT>
0

> <PUBCHEM_ATOM_UDEF_STEREO_COUNT>
0

> <PUBCHEM_BONDANNOTATIONS>
2  6  8
2  9  8
3  10  8
3  7  8
4  7  8
4  9  8
5  10  8
5  8  8
6  7  8
6  8  8

> <PUBCHEM_BOND_DEF_STEREO_COUNT>
0

> <PUBCHEM_BOND_UDEF_STEREO_COUNT>
0

> <PUBCHEM_CACTVS_COMPLEXITY>
190

> <PUBCHEM_CACTVS_HBOND_ACCEPTOR>
2

> <PUBCHEM_CACTVS_HBOND_DONOR>
2

> <PUBCHEM_CACTVS_ROTATABLE_BOND>
0

> <PUBCHEM_CACTVS_SUBSKEYS>
AAADcYBjoAAAAAAAAAAAAAAAAAAAAWAAAAAgAAAAAAAAAEABgAAAHgAQAAAACAgBlgQFsBbJkACoAQdxdACAgC2XEKABUYGoVECASAhASCAUAIAIAAJAAGAAAAAAAAAAAAAAAAAAAAAAAAAAAAAAAAAAAA==

> <PUBCHEM_CACTVS_TAUTO_COUNT>
-1

> <PUBCHEM_CACTVS_TPSA>
70.1

> <PUBCHEM_COMPONENT_COUNT>
1

> <PUBCHEM_COMPOUND_CANONICALIZED>
1

> <PUBCHEM_COMPOUND_CID>
790

> <PUBCHEM_COORDINATE_TYPE>
1
5
255

> <PUBCHEM_EXACT_MASS>
136.03851076

> <PUBCHEM_HEAVY_ATOM_COUNT>
10

> <PUBCHEM_ISOTOPIC_ATOM_COUNT>
0

> <PUBCHEM_IUPAC_CAS_NAME>
3,7-dihydropurin-6-one

> <PUBCHEM_IUPAC_INCHI>
InChI=1S/C5H4N4O/c10-5-3-4(7-1-6-3)8-2-9-5/h1-2H,(H2,6,7,8,9,10)

> <PUBCHEM_IUPAC_INCHIKEY>
FDGQSTZJBFJUBT-UHFFFAOYSA-N

> <PUBCHEM_IUPAC_NAME>
3,7-dihydropurin-6-one

> <PUBCHEM_IUPAC_NAME_MARKUP>
3,7-dihydropurin-6-one

> <PUBCHEM_IUPAC_OPENEYE_NAME>
3,7-dihydropurin-6-one

> <PUBCHEM_IUPAC_SYSTEMATIC_NAME>
3,7-dihydropurin-6-one

> <PUBCHEM_IUPAC_TRADITIONAL_NAME>
3,7-dihydropurin-6-one

> <PUBCHEM_MOLECULAR_FORMULA>
C5H4N4O

> <PUBCHEM_MOLECULAR_WEIGHT>
136.11

> <PUBCHEM_MONOISOTOPIC_WEIGHT>
136.03851076

> <PUBCHEM_OPENEYE_CAN_SMILES>
C1=NC2=C(N1)C(=O)N=CN2

> <PUBCHEM_OPENEYE_ISO_SMILES>
C1=NC2=C(N1)C(=O)N=CN2

> <PUBCHEM_TOTAL_CHARGE>
0

> <PUBCHEM_XLOGP3>
-1.1

> <RelativeEnergy>
0

> <StereoisomerIndex>
1

> <TautomerIndex>
2

> <LibDock Warning>
no hit found

> <ErrorText>
LibDock failed

$$$$
790
  SciTegic09112317153D

 15 16  0  0  0  0            999 V2000
   -1.0540    2.6320    0.2230 O   0  0  0  1  0  0
    1.6220    1.2290    0.1630 N   0  0  0  1  0  0
   -0.6640   -1.4700   -0.1600 N   0  0  0  1  0  0
    1.6430   -0.9780   -0.0500 N   0  3  0  1  0  0
   -2.0010    0.4730   -0.0080 N   0  0  0  1  0  0
    0.3220    0.7380    0.0800 C   0  0  0  1  0  0
    0.4660   -0.6910   -0.0540 C   0  0  0  1  0  0
   -0.8990    1.3150    0.1020 C   0  0  0  1  0  0
    2.3470    0.1650    0.0800 C   0  0  0  1  0  0
   -1.8980   -0.8220   -0.1300 C   0  0  0  1  0  0
    3.4270    0.1780    0.1110 H   0  0  0  1  0  0
   -2.7990   -1.4110   -0.2100 H   0  0  0  1  0  0
   -0.6010   -2.4640   -0.2540 H   0  0  0  1  0  0
    2.0330   -1.8970   -0.1280 H   0  0  0  1  0  0
   -1.9450    3.0030    0.2350 H   0  0  0  1  0  0
  1  8  1  0
  1 15  1  0
  2  6  1  0
  2  9  2  0
  3  7  1  0
  3 10  1  0
  3 13  1  0
  4  7  2  0
  4  9  1  0
  4 14  1  0
  5  8  1  0
  5 10  2  0
  6  7  1  0
  6  8  2  0
  9 11  1  0
 10 12  1  0
M  CHG  1   4   1
M  END
> <Name>
790

> <AbsoluteEnergy>
28.8549

> <ConfNumber>
1

> <Ionization pH>
7.5

> <IonizationIndex>
1

> <NumberOfIonizations>
1

> <NumberOfStereoisomers>
1

> <NumberOfTautomers>
5

> <OBJECTID>
9223374893011369997

> <PUBCHEM_ATOM_DEF_STEREO_COUNT>
0

> <PUBCHEM_ATOM_UDEF_STEREO_COUNT>
0

> <PUBCHEM_BONDANNOTATIONS>
2  6  8
2  9  8
3  10  8
3  7  8
4  7  8
4  9  8
5  10  8
5  8  8
6  7  8
6  8  8

> <PUBCHEM_BOND_DEF_STEREO_COUNT>
0

> <PUBCHEM_BOND_UDEF_STEREO_COUNT>
0

> <PUBCHEM_CACTVS_COMPLEXITY>
190

> <PUBCHEM_CACTVS_HBOND_ACCEPTOR>
2

> <PUBCHEM_CACTVS_HBOND_DONOR>
2

> <PUBCHEM_CACTVS_ROTATABLE_BOND>
0

> <PUBCHEM_CACTVS_SUBSKEYS>
AAADcYBjoAAAAAAAAAAAAAAAAAAAAWAAAAAgAAAAAAAAAEABgAAAHgAQAAAACAgBlgQFsBbJkACoAQdxdACAgC2XEKABUYGoVECASAhASCAUAIAIAAJAAGAAAAAAAAAAAAAAAAAAAAAAAAAAAAAAAAAAAA==

> <PUBCHEM_CACTVS_TAUTO_COUNT>
-1

> <PUBCHEM_CACTVS_TPSA>
70.1

> <PUBCHEM_COMPONENT_COUNT>
1

> <PUBCHEM_COMPOUND_CANONICALIZED>
1

> <PUBCHEM_COMPOUND_CID>
790

> <PUBCHEM_COORDINATE_TYPE>
1
5
255

> <PUBCHEM_EXACT_MASS>
136.03851076

> <PUBCHEM_HEAVY_ATOM_COUNT>
10

> <PUBCHEM_ISOTOPIC_ATOM_COUNT>
0

> <PUBCHEM_IUPAC_CAS_NAME>
3,7-dihydropurin-6-one

> <PUBCHEM_IUPAC_INCHI>
InChI=1S/C5H4N4O/c10-5-3-4(7-1-6-3)8-2-9-5/h1-2H,(H2,6,7,8,9,10)

> <PUBCHEM_IUPAC_INCHIKEY>
FDGQSTZJBFJUBT-UHFFFAOYSA-N

> <PUBCHEM_IUPAC_NAME>
3,7-dihydropurin-6-one

> <PUBCHEM_IUPAC_NAME_MARKUP>
3,7-dihydropurin-6-one

> <PUBCHEM_IUPAC_OPENEYE_NAME>
3,7-dihydropurin-6-one

> <PUBCHEM_IUPAC_SYSTEMATIC_NAME>
3,7-dihydropurin-6-one

> <PUBCHEM_IUPAC_TRADITIONAL_NAME>
3,7-dihydropurin-6-one

> <PUBCHEM_MOLECULAR_FORMULA>
C5H4N4O

> <PUBCHEM_MOLECULAR_WEIGHT>
136.11

> <PUBCHEM_MONOISOTOPIC_WEIGHT>
136.03851076

> <PUBCHEM_OPENEYE_CAN_SMILES>
C1=NC2=C(N1)C(=O)N=CN2

> <PUBCHEM_OPENEYE_ISO_SMILES>
C1=NC2=C(N1)C(=O)N=CN2

> <PUBCHEM_TOTAL_CHARGE>
0

> <PUBCHEM_XLOGP3>
-1.1

> <RelativeEnergy>
0

> <StereoisomerIndex>
1

> <TautomerIndex>
3

> <LibDock Warning>
no hit found

> <ErrorText>
LibDock failed

$$$$
795
  SciTegic09112317153D

 10 10  0  0  0  0            999 V2000
   -0.7680    0.8940    0.0000 N   0  0  0  1  0  0
    0.1020   -1.1820    0.0000 N   0  3  0  1  0  0
    0.5880    0.9940    0.0000 C   0  0  0  1  0  0
   -1.0800   -0.4320    0.0000 C   0  0  0  1  0  0
    1.1600   -0.2790    0.0000 C   0  0  0  1  0  0
    1.1130    1.9410    0.0000 H   0  0  0  1  0  0
   -2.0940   -0.8090    0.0000 H   0  0  0  1  0  0
    2.2150   -0.5160    0.0000 H   0  0  0  1  0  0
   -1.4120    1.6500    0.0000 H   0  0  0  1  0  0
    0.1760   -2.2620    0.0000 H   0  0  0  1  0  0
  1  3  1  0
  1  4  1  0
  1  9  1  0
  2  4  2  0
  2  5  1  0
  2 10  1  0
  3  5  2  0
  3  6  1  0
  4  7  1  0
  5  8  1  0
M  CHG  1   2   1
M  END
> <Name>
795

> <AbsoluteEnergy>
0.77144

> <ConfNumber>
1

> <Ionization pH>
7.09_P

> <IonizationIndex>
1

> <NumberOfIonizations>
2

> <NumberOfStereoisomers>
1

> <NumberOfTautomers>
1

> <OBJECTID>
9223374905896271885

> <PUBCHEM_ATOM_DEF_STEREO_COUNT>
0

> <PUBCHEM_ATOM_UDEF_STEREO_COUNT>
0

> <PUBCHEM_BONDANNOTATIONS>
1  3  8
1  4  8
2  4  8
2  5  8
3  5  8

> <PUBCHEM_BOND_DEF_STEREO_COUNT>
0

> <PUBCHEM_BOND_UDEF_STEREO_COUNT>
0

> <PUBCHEM_CACTVS_COMPLEXITY>
28.1

> <PUBCHEM_CACTVS_HBOND_ACCEPTOR>
1

> <PUBCHEM_CACTVS_HBOND_DONOR>
1

> <PUBCHEM_CACTVS_ROTATABLE_BOND>
0

> <PUBCHEM_CACTVS_SUBSKEYS>
AAADcYBDAAAAAAAAAAAAAAAAAAAAAWAAAAAAAAAAAAAAAAABgAAAHAAQAAAAAADBAgQtkBbJkACgABAnZAAAgC2REqAJQYAYMACASAAACAAQAAAIEAIAACAAAAAAAAAAAAAAAAAAAAAAAAAAAAAAAAAAAA==

> <PUBCHEM_CACTVS_TAUTO_COUNT>
-1

> <PUBCHEM_CACTVS_TPSA>
28.7

> <PUBCHEM_COMPONENT_COUNT>
1

> <PUBCHEM_COMPOUND_CANONICALIZED>
1

> <PUBCHEM_COMPOUND_CID>
795

> <PUBCHEM_COORDINATE_TYPE>
1
5
255

> <PUBCHEM_EXACT_MASS>
68.037448136

> <PUBCHEM_HEAVY_ATOM_COUNT>
5

> <PUBCHEM_ISOTOPIC_ATOM_COUNT>
0

> <PUBCHEM_IUPAC_CAS_NAME>
1H-imidazole

> <PUBCHEM_IUPAC_INCHI>
InChI=1S/C3H4N2/c1-2-5-3-4-1/h1-3H,(H,4,5)

> <PUBCHEM_IUPAC_INCHIKEY>
RAXXELZNTBOGNW-UHFFFAOYSA-N

> <PUBCHEM_IUPAC_NAME>
1H-imidazole

> <PUBCHEM_IUPAC_NAME_MARKUP>
1<I>H</I>-imidazole

> <PUBCHEM_IUPAC_OPENEYE_NAME>
imidazole

> <PUBCHEM_IUPAC_SYSTEMATIC_NAME>
1H-imidazole

> <PUBCHEM_IUPAC_TRADITIONAL_NAME>
glyoxaline

> <PUBCHEM_MOLECULAR_FORMULA>
C3H4N2

> <PUBCHEM_MOLECULAR_WEIGHT>
68.08

> <PUBCHEM_MONOISOTOPIC_WEIGHT>
68.037448136

> <PUBCHEM_OPENEYE_CAN_SMILES>
C1=CN=CN1

> <PUBCHEM_OPENEYE_ISO_SMILES>
C1=CN=CN1

> <PUBCHEM_TOTAL_CHARGE>
0

> <PUBCHEM_XLOGP3>
-0.1

> <RelativeEnergy>
0

> <StereoisomerIndex>
1

> <TautomerIndex>
1

> <LibDock Warning>
no hit found

> <ErrorText>
LibDock failed

$$$$
795
  SciTegic09112317153D

  9  9  0  0  0  0            999 V2000
   -0.9200    1.0800    0.0000 N   0  0  0  1  0  0
   -0.0570   -0.9900    0.0000 N   0  0  0  1  0  0
    0.4280    1.1810    0.0000 C   0  0  0  1  0  0
   -1.1990   -0.2520    0.0000 C   0  0  0  1  0  0
    0.9630   -0.1040    0.0000 C   0  0  0  1  0  0
    0.9630    2.1210    0.0000 H   0  0  0  1  0  0
   -2.1990   -0.6700    0.0000 H   0  0  0  1  0  0
    2.0080   -0.3850    0.0000 H   0  0  0  1  0  0
    0.0140   -1.9810    0.0000 H   0  0  0  1  0  0
  1  3  1  0
  1  4  2  0
  2  4  1  0
  2  5  1  0
  2  9  1  0
  3  5  2  0
  3  6  1  0
  4  7  1  0
  5  8  1  0
M  END
> <Name>
795

> <AbsoluteEnergy>
0.040457

> <ConfNumber>
1

> <Ionization pH>
7.09_D

> <IonizationIndex>
2

> <NumberOfIonizations>
2

> <NumberOfStereoisomers>
1

> <NumberOfTautomers>
2

> <OBJECTID>
9223374910191239181

> <PUBCHEM_ATOM_DEF_STEREO_COUNT>
0

> <PUBCHEM_ATOM_UDEF_STEREO_COUNT>
0

> <PUBCHEM_BONDANNOTATIONS>
1  3  8
1  4  8
2  4  8
2  5  8
3  5  8

> <PUBCHEM_BOND_DEF_STEREO_COUNT>
0

> <PUBCHEM_BOND_UDEF_STEREO_COUNT>
0

> <PUBCHEM_CACTVS_COMPLEXITY>
28.1

> <PUBCHEM_CACTVS_HBOND_ACCEPTOR>
1

> <PUBCHEM_CACTVS_HBOND_DONOR>
1

> <PUBCHEM_CACTVS_ROTATABLE_BOND>
0

> <PUBCHEM_CACTVS_SUBSKEYS>
AAADcYBDAAAAAAAAAAAAAAAAAAAAAWAAAAAAAAAAAAAAAAABgAAAHAAQAAAAAADBAgQtkBbJkACgABAnZAAAgC2REqAJQYAYMACASAAACAAQAAAIEAIAACAAAAAAAAAAAAAAAAAAAAAAAAAAAAAAAAAAAA==

> <PUBCHEM_CACTVS_TAUTO_COUNT>
-1

> <PUBCHEM_CACTVS_TPSA>
28.7

> <PUBCHEM_COMPONENT_COUNT>
1

> <PUBCHEM_COMPOUND_CANONICALIZED>
1

> <PUBCHEM_COMPOUND_CID>
795

> <PUBCHEM_COORDINATE_TYPE>
1
5
255

> <PUBCHEM_EXACT_MASS>
68.037448136

> <PUBCHEM_HEAVY_ATOM_COUNT>
5

> <PUBCHEM_ISOTOPIC_ATOM_COUNT>
0

> <PUBCHEM_IUPAC_CAS_NAME>
1H-imidazole

> <PUBCHEM_IUPAC_INCHI>
InChI=1S/C3H4N2/c1-2-5-3-4-1/h1-3H,(H,4,5)

> <PUBCHEM_IUPAC_INCHIKEY>
RAXXELZNTBOGNW-UHFFFAOYSA-N

> <PUBCHEM_IUPAC_NAME>
1H-imidazole

> <PUBCHEM_IUPAC_NAME_MARKUP>
1<I>H</I>-imidazole

> <PUBCHEM_IUPAC_OPENEYE_NAME>
imidazole

> <PUBCHEM_IUPAC_SYSTEMATIC_NAME>
1H-imidazole

> <PUBCHEM_IUPAC_TRADITIONAL_NAME>
glyoxaline

> <PUBCHEM_MOLECULAR_FORMULA>
C3H4N2

> <PUBCHEM_MOLECULAR_WEIGHT>
68.08

> <PUBCHEM_MONOISOTOPIC_WEIGHT>
68.037448136

> <PUBCHEM_OPENEYE_CAN_SMILES>
C1=CN=CN1

> <PUBCHEM_OPENEYE_ISO_SMILES>
C1=CN=CN1

> <PUBCHEM_TOTAL_CHARGE>
0

> <PUBCHEM_XLOGP3>
-0.1

> <RelativeEnergy>
0

> <StereoisomerIndex>
1

> <TautomerIndex>
1

> <LibDock Warning>
no hit found

> <ErrorText>
LibDock failed

$$$$
1048
  SciTegic09112317153D

  9  9  0  0  0  0            999 V2000
    0.1060   -1.3690    0.0000 N   0  0  0  1  0  0
   -1.0370   -0.6780    0.0000 N   0  0  0  1  0  0
    1.1660   -0.5430    0.0000 C   0  0  0  1  0  0
    0.6270    0.7620    0.0000 C   0  0  0  1  0  0
   -0.7810    0.6470    0.0000 C   0  0  0  1  0  0
    2.2030   -0.8550    0.0000 H   0  0  0  1  0  0
    1.1920    1.6860    0.0000 H   0  0  0  1  0  0
   -1.5290    1.4260    0.0000 H   0  0  0  1  0  0
   -1.9470   -1.0760    0.0000 H   0  0  0  1  0  0
  1  2  1  0
  1  3  2  0
  2  5  1  0
  2  9  1  0
  3  4  1  0
  3  6  1  0
  4  5  2  0
  4  7  1  0
  5  8  1  0
M  END
> <Name>
1048

> <AbsoluteEnergy>
13.8244

> <ConfNumber>
1

> <Ionization pH>
7.5

> <IonizationIndex>
1

> <NumberOfIonizations>
1

> <NumberOfStereoisomers>
1

> <NumberOfTautomers>
2

> <OBJECTID>
9223374914486206477

> <PUBCHEM_ATOM_DEF_STEREO_COUNT>
0

> <PUBCHEM_ATOM_UDEF_STEREO_COUNT>
0

> <PUBCHEM_BONDANNOTATIONS>
1  2  8
1  3  8
2  5  8
3  4  8
4  5  8

> <PUBCHEM_BOND_DEF_STEREO_COUNT>
0

> <PUBCHEM_BOND_UDEF_STEREO_COUNT>
0

> <PUBCHEM_CACTVS_COMPLEXITY>
28.1

> <PUBCHEM_CACTVS_HBOND_ACCEPTOR>
1

> <PUBCHEM_CACTVS_HBOND_DONOR>
1

> <PUBCHEM_CACTVS_ROTATABLE_BOND>
0

> <PUBCHEM_CACTVS_SUBSKEYS>
AAADcYBDAAAAAAAAAAAAAAAAAAAAAWAAAAAAAAAAAAAAAAABgAAAHAAYAAAACADBEgQ8gJBjAACiADBnQACQBAAAggAYMaAwZBAAAIAAQUAAhAAAGAAAAAAAAAAAAAAAAAAAAAAAAAAAAAAAAAAAAAAAAA==

> <PUBCHEM_CACTVS_TAUTO_COUNT>
1

> <PUBCHEM_CACTVS_TPSA>
28.7

> <PUBCHEM_COMPONENT_COUNT>
1

> <PUBCHEM_COMPOUND_CANONICALIZED>
1

> <PUBCHEM_COMPOUND_CID>
1048

> <PUBCHEM_COORDINATE_TYPE>
1
5
255

> <PUBCHEM_EXACT_MASS>
68.037448136

> <PUBCHEM_HEAVY_ATOM_COUNT>
5

> <PUBCHEM_ISOTOPIC_ATOM_COUNT>
0

> <PUBCHEM_IUPAC_CAS_NAME>
1H-pyrazole

> <PUBCHEM_IUPAC_INCHI>
InChI=1S/C3H4N2/c1-2-4-5-3-1/h1-3H,(H,4,5)

> <PUBCHEM_IUPAC_INCHIKEY>
WTKZEGDFNFYCGP-UHFFFAOYSA-N

> <PUBCHEM_IUPAC_NAME>
1H-pyrazole

> <PUBCHEM_IUPAC_NAME_MARKUP>
1<I>H</I>-pyrazole

> <PUBCHEM_IUPAC_OPENEYE_NAME>
1H-pyrazole

> <PUBCHEM_IUPAC_SYSTEMATIC_NAME>
1H-pyrazole

> <PUBCHEM_IUPAC_TRADITIONAL_NAME>
1H-pyrazole

> <PUBCHEM_MOLECULAR_FORMULA>
C3H4N2

> <PUBCHEM_MOLECULAR_WEIGHT>
68.08

> <PUBCHEM_MONOISOTOPIC_WEIGHT>
68.037448136

> <PUBCHEM_OPENEYE_CAN_SMILES>
C1=CNN=C1

> <PUBCHEM_OPENEYE_ISO_SMILES>
C1=CNN=C1

> <PUBCHEM_TOTAL_CHARGE>
0

> <PUBCHEM_XLOGP3>
0.3

> <RelativeEnergy>
0

> <StereoisomerIndex>
1

> <TautomerIndex>
1

> <LibDock Warning>
no hit found

> <ErrorText>
LibDock failed

$$$$
1057
  SciTegic09112317153D

 15 15  0  0  0  0            999 V2000
   -1.1710   -2.0580    0.0000 O   0  0  0  1  0  0
    1.5610   -2.1010    0.0000 O   0  0  0  1  0  0
   -2.4920    0.3340    0.0000 O   0  0  0  1  0  0
   -0.4920   -0.9280    0.0000 C   0  0  0  1  0  0
    0.9160   -0.9520    0.0000 C   0  0  0  1  0  0
   -1.1740    0.3040    0.0000 C   0  0  0  1  0  0
    1.6370    0.2550    0.0000 C   0  0  0  1  0  0
   -0.4480    1.5070    0.0000 C   0  0  0  1  0  0
    0.9570    1.4830    0.0000 C   0  0  0  1  0  0
    2.7170    0.2380    0.0000 H   0  0  0  1  0  0
   -0.9690    2.4530    0.0000 H   0  0  0  1  0  0
    1.5130    2.4090    0.0000 H   0  0  0  1  0  0
   -2.1360   -2.0290    0.0000 H   0  0  0  1  0  0
    2.5270   -2.1010    0.0000 H   0  0  0  1  0  0
   -2.9450    1.1870    0.0000 H   0  0  0  1  0  0
  1  4  1  0
  1 13  1  0
  2  5  1  0
  2 14  1  0
  3  6  1  0
  3 15  1  0
  4  5  2  0
  4  6  1  0
  5  7  1  0
  6  8  2  0
  7  9  2  0
  7 10  1  0
  8  9  1  0
  8 11  1  0
  9 12  1  0
M  END
> <Name>
1057

> <AbsoluteEnergy>
12.7492

> <ConfNumber>
1

> <Ionization pH>
7.5

> <IonizationIndex>
1

> <NumberOfIonizations>
1

> <NumberOfStereoisomers>
1

> <NumberOfTautomers>
1

> <OBJECTID>
9223374918781173773

> <PUBCHEM_ATOM_DEF_STEREO_COUNT>
0

> <PUBCHEM_ATOM_UDEF_STEREO_COUNT>
0

> <PUBCHEM_BONDANNOTATIONS>
4  5  8
4  6  8
5  7  8
6  8  8
7  9  8
8  9  8

> <PUBCHEM_BOND_DEF_STEREO_COUNT>
0

> <PUBCHEM_BOND_UDEF_STEREO_COUNT>
0

> <PUBCHEM_CACTVS_COMPLEXITY>
84.3

> <PUBCHEM_CACTVS_HBOND_ACCEPTOR>
3

> <PUBCHEM_CACTVS_HBOND_DONOR>
3

> <PUBCHEM_CACTVS_ROTATABLE_BOND>
0

> <PUBCHEM_CACTVS_SUBSKEYS>
AAADcYBgMAAAAAAAAAAAAAAAAAAAAAAAAAAwAAAAAAAAAAABAAAAGgAACAAACASAkAAwBoAAAgCAACBCAAACAAAgIAAIiAAGiIgJJyKCERKAcAElwBUJmAeAYAQAAAAACAAAQAAAAAAQAACAAAAAAAAAAA==

> <PUBCHEM_CACTVS_TAUTO_COUNT>
-1

> <PUBCHEM_CACTVS_TPSA>
60.7

> <PUBCHEM_COMPONENT_COUNT>
1

> <PUBCHEM_COMPOUND_CANONICALIZED>
1

> <PUBCHEM_COMPOUND_CID>
1057

> <PUBCHEM_COORDINATE_TYPE>
1
5
255

> <PUBCHEM_EXACT_MASS>
126.031694049

> <PUBCHEM_HEAVY_ATOM_COUNT>
9

> <PUBCHEM_ISOTOPIC_ATOM_COUNT>
0

> <PUBCHEM_IUPAC_CAS_NAME>
benzene-1,2,3-triol

> <PUBCHEM_IUPAC_INCHI>
InChI=1S/C6H6O3/c7-4-2-1-3-5(8)6(4)9/h1-3,7-9H

> <PUBCHEM_IUPAC_INCHIKEY>
WQGWDDDVZFFDIG-UHFFFAOYSA-N

> <PUBCHEM_IUPAC_NAME>
benzene-1,2,3-triol

> <PUBCHEM_IUPAC_NAME_MARKUP>
benzene-1,2,3-triol

> <PUBCHEM_IUPAC_OPENEYE_NAME>
benzene-1,2,3-triol

> <PUBCHEM_IUPAC_SYSTEMATIC_NAME>
benzene-1,2,3-triol

> <PUBCHEM_IUPAC_TRADITIONAL_NAME>
pyrogallol

> <PUBCHEM_MOLECULAR_FORMULA>
C6H6O3

> <PUBCHEM_MOLECULAR_WEIGHT>
126.11

> <PUBCHEM_MONOISOTOPIC_WEIGHT>
126.031694049

> <PUBCHEM_OPENEYE_CAN_SMILES>
C1=CC(=C(C(=C1)O)O)O

> <PUBCHEM_OPENEYE_ISO_SMILES>
C1=CC(=C(C(=C1)O)O)O

> <PUBCHEM_TOTAL_CHARGE>
0

> <PUBCHEM_XLOGP3>
0.5

> <RelativeEnergy>
0

> <StereoisomerIndex>
1

> <TautomerIndex>
1

> <LibDock Warning>
no hit found

> <ErrorText>
LibDock failed

$$$$
1188
  SciTegic09112317153D

 16 17  0  0  0  0            999 V2000
   -1.7440    2.2560    0.0900 O   0  0  0  1  0  0
   -2.5740   -2.1700    0.0140 O   0  0  0  1  0  0
   -0.3980   -1.6310   -0.0260 N   0  0  0  1  0  0
    1.2440    1.5570    0.0100 N   0  0  0  1  0  0
   -2.2170    0.0390    0.0510 N   0  0  0  1  0  0
    1.9020   -0.6060   -0.0610 N   0  3  0  1  0  0
    0.0840    0.7810    0.0170 C   0  0  0  1  0  0
    0.5630   -0.4900   -0.0240 C   0  0  0  1  0  0
   -1.3500    1.1130    0.0570 C   0  0  0  1  0  0
   -1.7560   -1.2790    0.0140 C   0  0  0  1  0  0
    2.3790    0.7110   -0.0410 C   0  0  0  1  0  0
    3.4040    1.0570   -0.0610 H   0  0  0  1  0  0
   -0.0960   -2.5840   -0.0530 H   0  0  0  1  0  0
    1.2720    2.5510    0.0350 H   0  0  0  1  0  0
   -3.2010    0.2110    0.0760 H   0  0  0  1  0  0
    2.4880   -1.5140   -0.0980 H   0  0  0  1  0  0
  1  9  2  0
  2 10  2  0
  3  8  1  0
  3 10  1  0
  3 13  1  0
  4  7  1  0
  4 11  1  0
  4 14  1  0
  5  9  1  0
  5 10  1  0
  5 15  1  0
  6  8  1  0
  6 11  2  0
  6 16  1  0
  7  8  2  0
  7  9  1  0
 11 12  1  0
M  CHG  1   6   1
M  END
> <Name>
1188

> <AbsoluteEnergy>
65.9949

> <ConfNumber>
1

> <Ionization pH>
7.5

> <IonizationIndex>
1

> <NumberOfIonizations>
1

> <NumberOfStereoisomers>
1

> <NumberOfTautomers>
9

> <OBJECTID>
9223374923076141069

> <PUBCHEM_ATOM_DEF_STEREO_COUNT>
0

> <PUBCHEM_ATOM_UDEF_STEREO_COUNT>
0

> <PUBCHEM_BONDANNOTATIONS>
3  10  8
3  8  8
4  11  8
4  7  8
5  10  8
5  9  8
6  11  8
6  8  8
7  8  8
7  9  8

> <PUBCHEM_BOND_DEF_STEREO_COUNT>
0

> <PUBCHEM_BOND_UDEF_STEREO_COUNT>
0

> <PUBCHEM_CACTVS_COMPLEXITY>
217

> <PUBCHEM_CACTVS_HBOND_ACCEPTOR>
3

> <PUBCHEM_CACTVS_HBOND_DONOR>
3

> <PUBCHEM_CACTVS_ROTATABLE_BOND>
0

> <PUBCHEM_CACTVS_SUBSKEYS>
AAADcYBjsAAAAAAAAAAAAAAAAAAAAWAAAAAsAAAAAAAAAFgBgAAAHgAQAAAACAgBlgQFsBbJkACoAQdxdACAgC2XEKABUYGoVECASAhASCAUAIgIBSJAAGAAAAAAAAAAAAAAAAAAAAAAAAAAAAAAAAAAAA==

> <PUBCHEM_CACTVS_TAUTO_COUNT>
15

> <PUBCHEM_CACTVS_TPSA>
86.9

> <PUBCHEM_COMPONENT_COUNT>
1

> <PUBCHEM_COMPOUND_CANONICALIZED>
1

> <PUBCHEM_COMPOUND_CID>
1188

> <PUBCHEM_COORDINATE_TYPE>
1
5
255

> <PUBCHEM_EXACT_MASS>
152.03342538

> <PUBCHEM_HEAVY_ATOM_COUNT>
11

> <PUBCHEM_ISOTOPIC_ATOM_COUNT>
0

> <PUBCHEM_IUPAC_CAS_NAME>
3,7-dihydropurine-2,6-dione

> <PUBCHEM_IUPAC_INCHI>
InChI=1S/C5H4N4O2/c10-4-2-3(7-1-6-2)8-5(11)9-4/h1H,(H3,6,7,8,9,10,11)

> <PUBCHEM_IUPAC_INCHIKEY>
LRFVTYWOQMYALW-UHFFFAOYSA-N

> <PUBCHEM_IUPAC_NAME>
3,7-dihydropurine-2,6-dione

> <PUBCHEM_IUPAC_NAME_MARKUP>
3,7-dihydropurine-2,6-dione

> <PUBCHEM_IUPAC_OPENEYE_NAME>
3,7-dihydropurine-2,6-dione

> <PUBCHEM_IUPAC_SYSTEMATIC_NAME>
3,7-dihydropurine-2,6-dione

> <PUBCHEM_IUPAC_TRADITIONAL_NAME>
xanthine

> <PUBCHEM_MOLECULAR_FORMULA>
C5H4N4O2

> <PUBCHEM_MOLECULAR_WEIGHT>
152.11

> <PUBCHEM_MONOISOTOPIC_WEIGHT>
152.03342538

> <PUBCHEM_OPENEYE_CAN_SMILES>
C1=NC2=C(N1)C(=O)NC(=O)N2

> <PUBCHEM_OPENEYE_ISO_SMILES>
C1=NC2=C(N1)C(=O)NC(=O)N2

> <PUBCHEM_TOTAL_CHARGE>
0

> <PUBCHEM_XLOGP3>
-0.7

> <RelativeEnergy>
0

> <StereoisomerIndex>
1

> <TautomerIndex>
1

> <LibDock Warning>
no hit found

> <ErrorText>
LibDock failed

$$$$
1188
  SciTegic09112317153D

 16 17  0  0  0  0            999 V2000
    0.1020   -2.7410   -0.0390 O   0  0  0  1  0  0
    3.0630    0.9450   -0.1170 O   0  0  0  1  0  0
    0.8340    1.3440   -0.0180 N   0  0  0  1  0  0
   -2.0970   -0.6710    0.0810 N   0  0  0  1  0  0
    1.5890   -0.8940   -0.0790 N   0  0  0  1  0  0
   -1.5190    1.4700    0.0820 N   0  3  0  1  0  0
   -0.7120   -0.5420    0.0240 C   0  0  0  1  0  0
   -0.4620    0.8800    0.0310 C   0  0  0  1  0  0
    0.3060   -1.4250   -0.0310 C   0  0  0  1  0  0
    1.8140    0.4890   -0.0700 C   0  0  0  1  0  0
   -2.5080    0.5510    0.1130 C   0  0  0  1  0  0
   -3.5510    0.8280    0.1610 H   0  0  0  1  0  0
    2.3730   -1.5150   -0.1210 H   0  0  0  1  0  0
   -1.6470    2.4620    0.0980 H   0  0  0  1  0  0
   -0.8020   -3.0800   -0.0050 H   0  0  0  1  0  0
    3.2190    1.8980   -0.1110 H   0  0  0  1  0  0
  1  9  1  0
  1 15  1  0
  2 10  1  0
  2 16  1  0
  3  8  1  0
  3 10  2  0
  4  7  1  0
  4 11  2  0
  5  9  1  0
  5 10  1  0
  5 13  1  0
  6  8  2  0
  6 11  1  0
  6 14  1  0
  7  8  1  0
  7  9  2  0
 11 12  1  0
M  CHG  1   6   1
M  END
> <Name>
1188

> <AbsoluteEnergy>
29.5346

> <ConfNumber>
1

> <Ionization pH>
7.5

> <IonizationIndex>
1

> <NumberOfIonizations>
1

> <NumberOfStereoisomers>
1

> <NumberOfTautomers>
9

> <OBJECTID>
9223374931666075661

> <PUBCHEM_ATOM_DEF_STEREO_COUNT>
0

> <PUBCHEM_ATOM_UDEF_STEREO_COUNT>
0

> <PUBCHEM_BONDANNOTATIONS>
3  10  8
3  8  8
4  11  8
4  7  8
5  10  8
5  9  8
6  11  8
6  8  8
7  8  8
7  9  8

> <PUBCHEM_BOND_DEF_STEREO_COUNT>
0

> <PUBCHEM_BOND_UDEF_STEREO_COUNT>
0

> <PUBCHEM_CACTVS_COMPLEXITY>
217

> <PUBCHEM_CACTVS_HBOND_ACCEPTOR>
3

> <PUBCHEM_CACTVS_HBOND_DONOR>
3

> <PUBCHEM_CACTVS_ROTATABLE_BOND>
0

> <PUBCHEM_CACTVS_SUBSKEYS>
AAADcYBjsAAAAAAAAAAAAAAAAAAAAWAAAAAsAAAAAAAAAFgBgAAAHgAQAAAACAgBlgQFsBbJkACoAQdxdACAgC2XEKABUYGoVECASAhASCAUAIgIBSJAAGAAAAAAAAAAAAAAAAAAAAAAAAAAAAAAAAAAAA==

> <PUBCHEM_CACTVS_TAUTO_COUNT>
15

> <PUBCHEM_CACTVS_TPSA>
86.9

> <PUBCHEM_COMPONENT_COUNT>
1

> <PUBCHEM_COMPOUND_CANONICALIZED>
1

> <PUBCHEM_COMPOUND_CID>
1188

> <PUBCHEM_COORDINATE_TYPE>
1
5
255

> <PUBCHEM_EXACT_MASS>
152.03342538

> <PUBCHEM_HEAVY_ATOM_COUNT>
11

> <PUBCHEM_ISOTOPIC_ATOM_COUNT>
0

> <PUBCHEM_IUPAC_CAS_NAME>
3,7-dihydropurine-2,6-dione

> <PUBCHEM_IUPAC_INCHI>
InChI=1S/C5H4N4O2/c10-4-2-3(7-1-6-2)8-5(11)9-4/h1H,(H3,6,7,8,9,10,11)

> <PUBCHEM_IUPAC_INCHIKEY>
LRFVTYWOQMYALW-UHFFFAOYSA-N

> <PUBCHEM_IUPAC_NAME>
3,7-dihydropurine-2,6-dione

> <PUBCHEM_IUPAC_NAME_MARKUP>
3,7-dihydropurine-2,6-dione

> <PUBCHEM_IUPAC_OPENEYE_NAME>
3,7-dihydropurine-2,6-dione

> <PUBCHEM_IUPAC_SYSTEMATIC_NAME>
3,7-dihydropurine-2,6-dione

> <PUBCHEM_IUPAC_TRADITIONAL_NAME>
xanthine

> <PUBCHEM_MOLECULAR_FORMULA>
C5H4N4O2

> <PUBCHEM_MOLECULAR_WEIGHT>
152.11

> <PUBCHEM_MONOISOTOPIC_WEIGHT>
152.03342538

> <PUBCHEM_OPENEYE_CAN_SMILES>
C1=NC2=C(N1)C(=O)NC(=O)N2

> <PUBCHEM_OPENEYE_ISO_SMILES>
C1=NC2=C(N1)C(=O)NC(=O)N2

> <PUBCHEM_TOTAL_CHARGE>
0

> <PUBCHEM_XLOGP3>
-0.7

> <RelativeEnergy>
0

> <StereoisomerIndex>
1

> <TautomerIndex>
3

> <LibDock Warning>
no hit found

> <ErrorText>
LibDock failed

$$$$
1188
  SciTegic09112317153D

 16 17  0  0  0  0            999 V2000
    1.7810   -2.2050    0.0010 O   0  0  0  1  0  0
    1.9790    2.4290    0.0000 O   0  0  0  1  0  0
   -0.1580    1.4470    0.0000 N   0  0  0  1  0  0
   -1.2300   -1.9370    0.0010 N   0  0  0  1  0  0
    1.8210    0.1630    0.0010 N   0  0  0  1  0  0
   -2.0980    0.1030   -0.0020 N   0  3  0  1  0  0
   -0.2190   -0.9800    0.0010 C   0  0  0  1  0  0
   -0.9010    0.2900    0.0000 C   0  0  0  1  0  0
    1.1300   -1.0440    0.0010 C   0  0  0  1  0  0
    1.2320    1.3280    0.0000 C   0  0  0  1  0  0
   -2.3090   -1.2300    0.0000 C   0  0  0  1  0  0
   -3.3010   -1.6560    0.0000 H   0  0  0  1  0  0
   -0.6030    2.3430    0.0000 H   0  0  0  1  0  0
   -2.8110    0.8060   -0.0040 H   0  0  0  1  0  0
    2.7470   -2.2050    0.0010 H   0  0  0  1  0  0
    2.9410    2.3480    0.0010 H   0  0  0  1  0  0
  1  9  1  0
  1 15  1  0
  2 10  1  0
  2 16  1  0
  3  8  1  0
  3 10  1  0
  3 13  1  0
  4  7  1  0
  4 11  2  0
  5  9  1  0
  5 10  2  0
  6  8  2  0
  6 11  1  0
  6 14  1  0
  7  8  1  0
  7  9  2  0
 11 12  1  0
M  CHG  1   6   1
M  END
> <Name>
1188

> <AbsoluteEnergy>
29.8003

> <ConfNumber>
1

> <Ionization pH>
7.5

> <IonizationIndex>
1

> <NumberOfIonizations>
1

> <NumberOfStereoisomers>
1

> <NumberOfTautomers>
9

> <OBJECTID>
9223374935961042957

> <PUBCHEM_ATOM_DEF_STEREO_COUNT>
0

> <PUBCHEM_ATOM_UDEF_STEREO_COUNT>
0

> <PUBCHEM_BONDANNOTATIONS>
3  10  8
3  8  8
4  11  8
4  7  8
5  10  8
5  9  8
6  11  8
6  8  8
7  8  8
7  9  8

> <PUBCHEM_BOND_DEF_STEREO_COUNT>
0

> <PUBCHEM_BOND_UDEF_STEREO_COUNT>
0

> <PUBCHEM_CACTVS_COMPLEXITY>
217

> <PUBCHEM_CACTVS_HBOND_ACCEPTOR>
3

> <PUBCHEM_CACTVS_HBOND_DONOR>
3

> <PUBCHEM_CACTVS_ROTATABLE_BOND>
0

> <PUBCHEM_CACTVS_SUBSKEYS>
AAADcYBjsAAAAAAAAAAAAAAAAAAAAWAAAAAsAAAAAAAAAFgBgAAAHgAQAAAACAgBlgQFsBbJkACoAQdxdACAgC2XEKABUYGoVECASAhASCAUAIgIBSJAAGAAAAAAAAAAAAAAAAAAAAAAAAAAAAAAAAAAAA==

> <PUBCHEM_CACTVS_TAUTO_COUNT>
15

> <PUBCHEM_CACTVS_TPSA>
86.9

> <PUBCHEM_COMPONENT_COUNT>
1

> <PUBCHEM_COMPOUND_CANONICALIZED>
1

> <PUBCHEM_COMPOUND_CID>
1188

> <PUBCHEM_COORDINATE_TYPE>
1
5
255

> <PUBCHEM_EXACT_MASS>
152.03342538

> <PUBCHEM_HEAVY_ATOM_COUNT>
11

> <PUBCHEM_ISOTOPIC_ATOM_COUNT>
0

> <PUBCHEM_IUPAC_CAS_NAME>
3,7-dihydropurine-2,6-dione

> <PUBCHEM_IUPAC_INCHI>
InChI=1S/C5H4N4O2/c10-4-2-3(7-1-6-2)8-5(11)9-4/h1H,(H3,6,7,8,9,10,11)

> <PUBCHEM_IUPAC_INCHIKEY>
LRFVTYWOQMYALW-UHFFFAOYSA-N

> <PUBCHEM_IUPAC_NAME>
3,7-dihydropurine-2,6-dione

> <PUBCHEM_IUPAC_NAME_MARKUP>
3,7-dihydropurine-2,6-dione

> <PUBCHEM_IUPAC_OPENEYE_NAME>
3,7-dihydropurine-2,6-dione

> <PUBCHEM_IUPAC_SYSTEMATIC_NAME>
3,7-dihydropurine-2,6-dione

> <PUBCHEM_IUPAC_TRADITIONAL_NAME>
xanthine

> <PUBCHEM_MOLECULAR_FORMULA>
C5H4N4O2

> <PUBCHEM_MOLECULAR_WEIGHT>
152.11

> <PUBCHEM_MONOISOTOPIC_WEIGHT>
152.03342538

> <PUBCHEM_OPENEYE_CAN_SMILES>
C1=NC2=C(N1)C(=O)NC(=O)N2

> <PUBCHEM_OPENEYE_ISO_SMILES>
C1=NC2=C(N1)C(=O)NC(=O)N2

> <PUBCHEM_TOTAL_CHARGE>
0

> <PUBCHEM_XLOGP3>
-0.7

> <RelativeEnergy>
0

> <StereoisomerIndex>
1

> <TautomerIndex>
4

> <LibDock Warning>
no hit found

> <ErrorText>
LibDock failed

$$$$
1188
  SciTegic09112317153D

 16 17  0  0  0  0            999 V2000
    0.5960    2.8710    0.0930 O   0  0  0  1  0  0
    3.2590   -0.7860    0.2120 O   0  0  0  1  0  0
    0.9530   -1.1860    0.0460 N   0  0  0  1  0  0
   -1.8660    1.0180   -0.1150 N   0  0  0  1  0  0
    1.9030    1.0160    0.1500 N   0  0  0  1  0  0
   -1.5700   -1.2280   -0.1290 N   0  3  0  1  0  0
   -0.4940    0.7880   -0.0210 C   0  0  0  1  0  0
   -0.4030   -0.5660   -0.0380 C   0  0  0  1  0  0
    0.6850    1.6660    0.0770 C   0  0  0  1  0  0
    2.0290   -0.2830    0.1360 C   0  0  0  1  0  0
   -2.5470   -0.2250   -0.1800 C   0  0  0  1  0  0
   -3.6210   -0.3350   -0.2550 H   0  0  0  1  0  0
    1.0900   -2.1780    0.0390 H   0  0  0  1  0  0
   -2.3010    1.9110   -0.1330 H   0  0  0  1  0  0
   -1.7250   -2.2980   -0.1570 H   0  0  0  1  0  0
    4.0120   -0.1840    0.2750 H   0  0  0  1  0  0
  1  9  2  0
  2 10  1  0
  2 16  1  0
  3  8  1  0
  3 10  1  0
  3 13  1  0
  4  7  1  0
  4 11  1  0
  4 14  1  0
  5  9  1  0
  5 10  2  0
  6  8  1  0
  6 11  2  0
  6 15  1  0
  7  8  2  0
  7  9  1  0
 11 12  1  0
M  CHG  1   6   1
M  END
> <Name>
1188

> <AbsoluteEnergy>
69.675

> <ConfNumber>
1

> <Ionization pH>
7.5

> <IonizationIndex>
1

> <NumberOfIonizations>
1

> <NumberOfStereoisomers>
1

> <NumberOfTautomers>
9

> <OBJECTID>
9223374948845944845

> <PUBCHEM_ATOM_DEF_STEREO_COUNT>
0

> <PUBCHEM_ATOM_UDEF_STEREO_COUNT>
0

> <PUBCHEM_BONDANNOTATIONS>
3  10  8
3  8  8
4  11  8
4  7  8
5  10  8
5  9  8
6  11  8
6  8  8
7  8  8
7  9  8

> <PUBCHEM_BOND_DEF_STEREO_COUNT>
0

> <PUBCHEM_BOND_UDEF_STEREO_COUNT>
0

> <PUBCHEM_CACTVS_COMPLEXITY>
217

> <PUBCHEM_CACTVS_HBOND_ACCEPTOR>
3

> <PUBCHEM_CACTVS_HBOND_DONOR>
3

> <PUBCHEM_CACTVS_ROTATABLE_BOND>
0

> <PUBCHEM_CACTVS_SUBSKEYS>
AAADcYBjsAAAAAAAAAAAAAAAAAAAAWAAAAAsAAAAAAAAAFgBgAAAHgAQAAAACAgBlgQFsBbJkACoAQdxdACAgC2XEKABUYGoVECASAhASCAUAIgIBSJAAGAAAAAAAAAAAAAAAAAAAAAAAAAAAAAAAAAAAA==

> <PUBCHEM_CACTVS_TAUTO_COUNT>
15

> <PUBCHEM_CACTVS_TPSA>
86.9

> <PUBCHEM_COMPONENT_COUNT>
1

> <PUBCHEM_COMPOUND_CANONICALIZED>
1

> <PUBCHEM_COMPOUND_CID>
1188

> <PUBCHEM_COORDINATE_TYPE>
1
5
255

> <PUBCHEM_EXACT_MASS>
152.03342538

> <PUBCHEM_HEAVY_ATOM_COUNT>
11

> <PUBCHEM_ISOTOPIC_ATOM_COUNT>
0

> <PUBCHEM_IUPAC_CAS_NAME>
3,7-dihydropurine-2,6-dione

> <PUBCHEM_IUPAC_INCHI>
InChI=1S/C5H4N4O2/c10-4-2-3(7-1-6-2)8-5(11)9-4/h1H,(H3,6,7,8,9,10,11)

> <PUBCHEM_IUPAC_INCHIKEY>
LRFVTYWOQMYALW-UHFFFAOYSA-N

> <PUBCHEM_IUPAC_NAME>
3,7-dihydropurine-2,6-dione

> <PUBCHEM_IUPAC_NAME_MARKUP>
3,7-dihydropurine-2,6-dione

> <PUBCHEM_IUPAC_OPENEYE_NAME>
3,7-dihydropurine-2,6-dione

> <PUBCHEM_IUPAC_SYSTEMATIC_NAME>
3,7-dihydropurine-2,6-dione

> <PUBCHEM_IUPAC_TRADITIONAL_NAME>
xanthine

> <PUBCHEM_MOLECULAR_FORMULA>
C5H4N4O2

> <PUBCHEM_MOLECULAR_WEIGHT>
152.11

> <PUBCHEM_MONOISOTOPIC_WEIGHT>
152.03342538

> <PUBCHEM_OPENEYE_CAN_SMILES>
C1=NC2=C(N1)C(=O)NC(=O)N2

> <PUBCHEM_OPENEYE_ISO_SMILES>
C1=NC2=C(N1)C(=O)NC(=O)N2

> <PUBCHEM_TOTAL_CHARGE>
0

> <PUBCHEM_XLOGP3>
-0.7

> <RelativeEnergy>
0

> <StereoisomerIndex>
1

> <TautomerIndex>
7

> <LibDock Warning>
no hit found

> <ErrorText>
LibDock failed

$$$$
1188
  SciTegic09112317153D

 16 17  0  0  0  0            999 V2000
    2.3830   -1.3890    0.2070 O   0  0  0  1  0  0
    1.1230    3.0530    0.0870 O   0  0  0  1  0  0
   -0.5560    1.5650   -0.0530 N   0  0  0  1  0  0
   -0.5480   -1.9910   -0.0420 N   0  0  0  1  0  0
    1.7650    0.8940    0.1480 N   0  0  0  1  0  0
   -1.9790   -0.3050   -0.1670 N   0  3  0  1  0  0
    0.1310   -0.7770    0.0130 C   0  0  0  1  0  0
   -0.8970    0.2340   -0.0770 C   0  0  0  1  0  0
    1.4380   -0.4560    0.1240 C   0  0  0  1  0  0
    0.7910    1.8900    0.0620 C   0  0  0  1  0  0
   -1.7840   -1.6390   -0.1480 C   0  0  0  1  0  0
   -2.6010   -2.3430   -0.2150 H   0  0  0  1  0  0
   -1.2590    2.2750   -0.1160 H   0  0  0  1  0  0
    2.7270    1.1570    0.2310 H   0  0  0  1  0  0
   -2.8660    0.1520   -0.2420 H   0  0  0  1  0  0
    2.1310   -2.3210    0.1880 H   0  0  0  1  0  0
  1  9  1  0
  1 16  1  0
  2 10  2  0
  3  8  1  0
  3 10  1  0
  3 13  1  0
  4  7  1  0
  4 11  2  0
  5  9  1  0
  5 10  1  0
  5 14  1  0
  6  8  2  0
  6 11  1  0
  6 15  1  0
  7  8  1  0
  7  9  2  0
 11 12  1  0
M  CHG  1   6   1
M  END
> <Name>
1188

> <AbsoluteEnergy>
26.2805

> <ConfNumber>
1

> <Ionization pH>
7.5

> <IonizationIndex>
1

> <NumberOfIonizations>
1

> <NumberOfStereoisomers>
1

> <NumberOfTautomers>
9

> <OBJECTID>
9223374953140912141

> <PUBCHEM_ATOM_DEF_STEREO_COUNT>
0

> <PUBCHEM_ATOM_UDEF_STEREO_COUNT>
0

> <PUBCHEM_BONDANNOTATIONS>
3  10  8
3  8  8
4  11  8
4  7  8
5  10  8
5  9  8
6  11  8
6  8  8
7  8  8
7  9  8

> <PUBCHEM_BOND_DEF_STEREO_COUNT>
0

> <PUBCHEM_BOND_UDEF_STEREO_COUNT>
0

> <PUBCHEM_CACTVS_COMPLEXITY>
217

> <PUBCHEM_CACTVS_HBOND_ACCEPTOR>
3

> <PUBCHEM_CACTVS_HBOND_DONOR>
3

> <PUBCHEM_CACTVS_ROTATABLE_BOND>
0

> <PUBCHEM_CACTVS_SUBSKEYS>
AAADcYBjsAAAAAAAAAAAAAAAAAAAAWAAAAAsAAAAAAAAAFgBgAAAHgAQAAAACAgBlgQFsBbJkACoAQdxdACAgC2XEKABUYGoVECASAhASCAUAIgIBSJAAGAAAAAAAAAAAAAAAAAAAAAAAAAAAAAAAAAAAA==

> <PUBCHEM_CACTVS_TAUTO_COUNT>
15

> <PUBCHEM_CACTVS_TPSA>
86.9

> <PUBCHEM_COMPONENT_COUNT>
1

> <PUBCHEM_COMPOUND_CANONICALIZED>
1

> <PUBCHEM_COMPOUND_CID>
1188

> <PUBCHEM_COORDINATE_TYPE>
1
5
255

> <PUBCHEM_EXACT_MASS>
152.03342538

> <PUBCHEM_HEAVY_ATOM_COUNT>
11

> <PUBCHEM_ISOTOPIC_ATOM_COUNT>
0

> <PUBCHEM_IUPAC_CAS_NAME>
3,7-dihydropurine-2,6-dione

> <PUBCHEM_IUPAC_INCHI>
InChI=1S/C5H4N4O2/c10-4-2-3(7-1-6-2)8-5(11)9-4/h1H,(H3,6,7,8,9,10,11)

> <PUBCHEM_IUPAC_INCHIKEY>
LRFVTYWOQMYALW-UHFFFAOYSA-N

> <PUBCHEM_IUPAC_NAME>
3,7-dihydropurine-2,6-dione

> <PUBCHEM_IUPAC_NAME_MARKUP>
3,7-dihydropurine-2,6-dione

> <PUBCHEM_IUPAC_OPENEYE_NAME>
3,7-dihydropurine-2,6-dione

> <PUBCHEM_IUPAC_SYSTEMATIC_NAME>
3,7-dihydropurine-2,6-dione

> <PUBCHEM_IUPAC_TRADITIONAL_NAME>
xanthine

> <PUBCHEM_MOLECULAR_FORMULA>
C5H4N4O2

> <PUBCHEM_MOLECULAR_WEIGHT>
152.11

> <PUBCHEM_MONOISOTOPIC_WEIGHT>
152.03342538

> <PUBCHEM_OPENEYE_CAN_SMILES>
C1=NC2=C(N1)C(=O)NC(=O)N2

> <PUBCHEM_OPENEYE_ISO_SMILES>
C1=NC2=C(N1)C(=O)NC(=O)N2

> <PUBCHEM_TOTAL_CHARGE>
0

> <PUBCHEM_XLOGP3>
-0.7

> <RelativeEnergy>
0

> <StereoisomerIndex>
1

> <TautomerIndex>
8

> <LibDock Warning>
no hit found

> <ErrorText>
LibDock failed

$$$$
5054
  SciTegic09112317153D

 14 14  0  0  0  0            999 V2000
    1.4070   -2.2560    0.0000 O   0  0  0  1  0  0
   -2.6540    0.1560    0.0000 O   0  0  0  1  0  0
    0.7620   -1.1070    0.0000 C   0  0  0  1  0  0
   -1.3360    0.1390    0.0000 C   0  0  0  1  0  0
   -0.6440   -1.0850    0.0000 C   0  0  0  1  0  0
    1.4770    0.1040    0.0000 C   0  0  0  1  0  0
   -0.6150    1.3460    0.0000 C   0  0  0  1  0  0
    0.7890    1.3290    0.0000 C   0  0  0  1  0  0
   -1.1960   -2.0140    0.0000 H   0  0  0  1  0  0
    2.5570    0.0930    0.0000 H   0  0  0  1  0  0
   -1.1420    2.2900    0.0000 H   0  0  0  1  0  0
    1.3410    2.2580    0.0000 H   0  0  0  1  0  0
    2.3730   -2.2560    0.0000 H   0  0  0  1  0  0
   -3.1160    1.0040    0.0000 H   0  0  0  1  0  0
  1  3  1  0
  1 13  1  0
  2  4  1  0
  2 14  1  0
  3  5  2  0
  3  6  1  0
  4  5  1  0
  4  7  2  0
  5  9  1  0
  6  8  2  0
  6 10  1  0
  7  8  1  0
  7 11  1  0
  8 12  1  0
M  END
> <Name>
5054

> <AbsoluteEnergy>
11.7036

> <ConfNumber>
1

> <Ionization pH>
7.5

> <IonizationIndex>
1

> <NumberOfIonizations>
1

> <NumberOfStereoisomers>
1

> <NumberOfTautomers>
1

> <OBJECTID>
9223374961730846733

> <PUBCHEM_ATOM_DEF_STEREO_COUNT>
0

> <PUBCHEM_ATOM_UDEF_STEREO_COUNT>
0

> <PUBCHEM_BONDANNOTATIONS>
3  5  8
3  6  8
4  5  8
4  7  8
6  8  8
7  8  8

> <PUBCHEM_BOND_DEF_STEREO_COUNT>
0

> <PUBCHEM_BOND_UDEF_STEREO_COUNT>
0

> <PUBCHEM_CACTVS_COMPLEXITY>
64.9

> <PUBCHEM_CACTVS_HBOND_ACCEPTOR>
2

> <PUBCHEM_CACTVS_HBOND_DONOR>
2

> <PUBCHEM_CACTVS_ROTATABLE_BOND>
0

> <PUBCHEM_CACTVS_SUBSKEYS>
AAADcYBgMAAAAAAAAAAAAAAAAAAAAAAAAAAwAAAAAAAAAAABAAAAGgAACAAACASAkAAwBoAAAgCAACBCAAACAAAgIAAIiAAGCIgIJyKCERKAcAAlwBUImAeAYAQAAAAACAAAAAAAAAAQAAAAAAAAAAAAAA==

> <PUBCHEM_CACTVS_TAUTO_COUNT>
-1

> <PUBCHEM_CACTVS_TPSA>
40.5

> <PUBCHEM_COMPONENT_COUNT>
1

> <PUBCHEM_COMPOUND_CANONICALIZED>
1

> <PUBCHEM_COMPOUND_CID>
5054

> <PUBCHEM_COORDINATE_TYPE>
1
5
255

> <PUBCHEM_EXACT_MASS>
110.03677943

> <PUBCHEM_HEAVY_ATOM_COUNT>
8

> <PUBCHEM_ISOTOPIC_ATOM_COUNT>
0

> <PUBCHEM_IUPAC_CAS_NAME>
benzene-1,3-diol

> <PUBCHEM_IUPAC_INCHI>
InChI=1S/C6H6O2/c7-5-2-1-3-6(8)4-5/h1-4,7-8H

> <PUBCHEM_IUPAC_INCHIKEY>
GHMLBKRAJCXXBS-UHFFFAOYSA-N

> <PUBCHEM_IUPAC_NAME>
benzene-1,3-diol

> <PUBCHEM_IUPAC_NAME_MARKUP>
benzene-1,3-diol

> <PUBCHEM_IUPAC_OPENEYE_NAME>
benzene-1,3-diol

> <PUBCHEM_IUPAC_SYSTEMATIC_NAME>
benzene-1,3-diol

> <PUBCHEM_IUPAC_TRADITIONAL_NAME>
resorcinol

> <PUBCHEM_MOLECULAR_FORMULA>
C6H6O2

> <PUBCHEM_MOLECULAR_WEIGHT>
110.11

> <PUBCHEM_MONOISOTOPIC_WEIGHT>
110.03677943

> <PUBCHEM_OPENEYE_CAN_SMILES>
C1=CC(=CC(=C1)O)O

> <PUBCHEM_OPENEYE_ISO_SMILES>
C1=CC(=CC(=C1)O)O

> <PUBCHEM_TOTAL_CHARGE>
0

> <PUBCHEM_XLOGP3>
0.8

> <RelativeEnergy>
0

> <StereoisomerIndex>
1

> <TautomerIndex>
1

> <LibDock Warning>
no hit found

> <ErrorText>
LibDock failed

$$$$
6021
  SciTegic09112317153D

 31 33  0  0  0  0            999 V2000
   -0.2060   -1.6800    0.4380 O   0  0  0  1  0  0
    1.5100   -0.7070   -2.5270 O   0  0  0  1  0  0
    2.1010   -2.9610   -0.9460 O   0  0  0  1  0  0
    0.1790   -0.3810    2.5970 O   0  0  0  1  0  0
   -3.3470    4.0590   -0.1010 O   0  0  0  1  0  0
   -1.2230   -0.0270   -0.8690 N   0  0  0  1  0  0
   -0.0420    1.5600    0.4440 N   0  0  0  1  0  0
   -3.1440    1.1650   -1.3040 N   0  0  0  1  0  0
   -1.2750    3.6720    0.7710 N   0  0  0  1  0  0
    1.2030   -0.6760   -1.1420 C   0  0  1  1  0  0
   -0.2370   -1.1240   -0.8630 C   0  0  1  1  0  0
    2.0180   -1.6870   -0.3170 C   0  0  1  1  0  0
    1.1200   -1.7870    0.9230 C   0  0  1  1  0  0
    1.3630   -0.6100    1.8640 C   0  0  0  1  0  0
   -1.1470    1.1860   -0.2850 C   0  0  0  1  0  0
   -2.4610   -0.0220   -1.4940 C   0  0  0  1  0  0
   -2.2980    1.8800   -0.5530 C   0  0  0  1  0  0
   -2.3400    3.1820    0.0130 C   0  0  0  1  0  0
   -0.1520    2.8520    0.9700 C   0  0  0  1  0  0
   -0.5540   -1.9080   -1.5360 H   0  0  0  1  0  0
    1.3900    0.3290   -0.7830 H   0  0  0  1  0  0
    3.0190   -1.3440   -0.0980 H   0  0  0  1  0  0
    1.2280   -2.7180    1.4630 H   0  0  0  1  0  0
    2.1590   -0.8390    2.5700 H   0  0  0  1  0  0
    1.5910    0.2930    1.3000 H   0  0  0  1  0  0
   -2.8520   -0.8520   -2.0660 H   0  0  0  1  0  0
    0.6690    3.2360    1.5580 H   0  0  0  1  0  0
    0.9700   -0.0240   -2.9540 H   0  0  0  1  0  0
    2.6600   -3.5210   -0.3830 H   0  0  0  1  0  0
    0.3580    0.3530    3.2080 H   0  0  0  1  0  0
   -3.2720    4.9230    0.3260 H   0  0  0  1  0  0
  1 11  1  0
  1 13  1  0
  2 10  1  0
  2 28  1  0
  3 12  1  0
  3 29  1  0
  4 14  1  0
  4 30  1  0
  5 18  1  0
  5 31  1  0
  6 11  1  0
  6 15  1  0
  6 16  1  0
  7 15  1  0
  7 19  2  0
  8 16  2  0
  8 17  1  0
  9 18  2  0
  9 19  1  0
 10 11  1  0
 10 12  1  0
 10 21  1  0
 11 20  1  0
 12 13  1  0
 12 22  1  0
 13 14  1  0
 13 23  1  0
 14 24  1  0
 14 25  1  0
 15 17  2  0
 16 26  1  0
 17 18  1  0
 19 27  1  0
M  END
> <Name>
6021

> <AbsoluteEnergy>
54.4576

> <ConfNumber>
1

> <Ionization pH>
7.5

> <IonizationIndex>
1

> <NumberOfIonizations>
1

> <NumberOfStereoisomers>
1

> <NumberOfTautomers>
3

> <OBJECTID>
9223374970320781325

> <PUBCHEM_ATOM_DEF_STEREO_COUNT>
4

> <PUBCHEM_ATOM_UDEF_STEREO_COUNT>
0

> <PUBCHEM_BONDANNOTATIONS>
13  14  6
15  17  8
17  18  8
10  2  5
12  3  5
11  6  6
6  15  8
6  16  8
7  15  8
7  19  8
8  16  8
8  17  8
9  18  8
9  19  8

> <PUBCHEM_BOND_DEF_STEREO_COUNT>
0

> <PUBCHEM_BOND_UDEF_STEREO_COUNT>
0

> <PUBCHEM_CACTVS_COMPLEXITY>
405

> <PUBCHEM_CACTVS_HBOND_ACCEPTOR>
6

> <PUBCHEM_CACTVS_HBOND_DONOR>
4

> <PUBCHEM_CACTVS_ROTATABLE_BOND>
2

> <PUBCHEM_CACTVS_SUBSKEYS>
AAADccBzuAAAAAAAAAAAAAAAAAAAAWJAAAAgAAAAAAAAAEABgAAAHgAQCAAACBzhlgYFsBfMFgCoAQdxdACAgC0XEKABUIGoVECDWApAyCAeQIAPAALTAGDwMAIAAAAAAAAAAAAAAAAAAAAAAAAAAAAAAA==

> <PUBCHEM_CACTVS_TAUTO_COUNT>
-1

> <PUBCHEM_CACTVS_TPSA>
129

> <PUBCHEM_COMPONENT_COUNT>
1

> <PUBCHEM_COMPOUND_CANONICALIZED>
1

> <PUBCHEM_COMPOUND_CID>
6021

> <PUBCHEM_COORDINATE_TYPE>
1
5
255

> <PUBCHEM_EXACT_MASS>
268.0807695

> <PUBCHEM_HEAVY_ATOM_COUNT>
19

> <PUBCHEM_ISOTOPIC_ATOM_COUNT>
0

> <PUBCHEM_IUPAC_CAS_NAME>
9-[(2R,3R,4S,5R)-3,4-dihydroxy-5-(hydroxymethyl)-2-oxolanyl]-3H-purin-6-one

> <PUBCHEM_IUPAC_INCHI>
InChI=1S/C10H12N4O5/c15-1-4-6(16)7(17)10(19-4)14-3-13-5-8(14)11-2-12-9(5)18/h2-4,6-7,10,15-17H,1H2,(H,11,12,18)/t4-,6-,7-,10-/m1/s1

> <PUBCHEM_IUPAC_INCHIKEY>
UGQMRVRMYYASKQ-KQYNXXCUSA-N

> <PUBCHEM_IUPAC_NAME>
9-[(2R,3R,4S,5R)-3,4-dihydroxy-5-(hydroxymethyl)oxolan-2-yl]-3H-purin-6-one

> <PUBCHEM_IUPAC_NAME_MARKUP>
9-[(2<I>R</I>,3<I>R</I>,4<I>S</I>,5<I>R</I>)-3,4-dihydroxy-5-(hydroxymethyl)oxolan-2-yl]-3<I>H</I>-purin-6-one

> <PUBCHEM_IUPAC_OPENEYE_NAME>
9-[(2R,3R,4S,5R)-3,4-dihydroxy-5-(hydroxymethyl)tetrahydrofuran-2-yl]-3H-purin-6-one

> <PUBCHEM_IUPAC_SYSTEMATIC_NAME>
9-[(2R,3R,4S,5R)-5-(hydroxymethyl)-3,4-bis(oxidanyl)oxolan-2-yl]-3H-purin-6-one

> <PUBCHEM_IUPAC_TRADITIONAL_NAME>
9-[(2R,3R,4S,5R)-3,4-dihydroxy-5-methylol-tetrahydrofuran-2-yl]-3H-purin-6-one

> <PUBCHEM_MOLECULAR_FORMULA>
C10H12N4O5

> <PUBCHEM_MOLECULAR_WEIGHT>
268.23

> <PUBCHEM_MONOISOTOPIC_WEIGHT>
268.0807695

> <PUBCHEM_OPENEYE_CAN_SMILES>
C1=NC(=O)C2=C(N1)N(C=N2)C3C(C(C(O3)CO)O)O

> <PUBCHEM_OPENEYE_ISO_SMILES>
C1=NC(=O)C2=C(N1)N(C=N2)[C@H]3[C@@H]([C@@H]([C@H](O3)CO)O)O

> <PUBCHEM_TOTAL_CHARGE>
0

> <PUBCHEM_XLOGP3>
-2.1

> <RelativeEnergy>
0

> <StereoisomerIndex>
1

> <TautomerIndex>
1

> <LibDock Warning>
no hit found

> <ErrorText>
LibDock failed

$$$$
9064
  SciTegic09112317153D

 35 37  0  0  0  0            999 V2000
    0.4710    0.3800   -1.7270 O   0  0  0  1  0  0
   -0.4080   -2.3020   -2.4530 O   0  0  0  1  0  0
    2.1290   -2.7150    1.5800 O   0  0  0  1  0  0
    4.9120    0.7900   -0.0550 O   0  0  0  1  0  0
   -0.9760    2.2860    2.6230 O   0  0  0  1  0  0
   -3.6180    2.9050    2.2720 O   0  0  0  1  0  0
   -0.9080   -1.6050   -1.3270 C   0  0  2  1  0  0
   -0.8800   -0.0880   -1.6250 C   0  0  1  1  0  0
   -0.0470   -1.9440   -0.0900 C   0  0  0  1  0  0
    1.2500   -1.2200   -0.0730 C   0  0  0  1  0  0
    1.4450   -0.0810   -0.9090 C   0  0  0  1  0  0
   -1.6060    0.7060   -0.5910 C   0  0  0  1  0  0
    2.3000   -1.6550    0.7770 C   0  0  0  1  0  0
    2.6920    0.5880   -0.9010 C   0  0  0  1  0  0
   -0.9340    1.1370    0.5650 C   0  0  0  1  0  0
   -2.9630    1.0250   -0.7710 C   0  0  0  1  0  0
    3.5400   -0.9720    0.7840 C   0  0  0  1  0  0
    3.7370    0.1470   -0.0570 C   0  0  0  1  0  0
   -1.6130    1.8870    1.5410 C   0  0  0  1  0  0
   -3.6440    1.7720    0.2040 C   0  0  0  1  0  0
   -2.9720    2.2040    1.3600 C   0  0  0  1  0  0
   -1.9310   -1.9550   -1.1840 H   0  0  0  1  0  0
   -1.3710    0.1220   -2.5780 H   0  0  0  1  0  0
    0.1150   -3.0210   -0.0260 H   0  0  0  1  0  0
   -0.5950   -1.6680    0.8110 H   0  0  0  1  0  0
    2.8440    1.4450   -1.5430 H   0  0  0  1  0  0
    0.1090    0.8950    0.7060 H   0  0  0  1  0  0
   -3.4870    0.6960   -1.6580 H   0  0  0  1  0  0
    4.3360   -1.3070    1.4310 H   0  0  0  1  0  0
   -4.6870    2.0140    0.0630 H   0  0  0  1  0  0
   -0.5250   -3.2490   -2.2790 H   0  0  0  1  0  0
    1.2540   -3.1200    1.6460 H   0  0  0  1  0  0
    5.6190    0.4800    0.5260 H   0  0  0  1  0  0
   -1.4520    2.8010    3.2890 H   0  0  0  1  0  0
   -4.5500    3.1170    2.1330 H   0  0  0  1  0  0
  1  8  1  0
  1 11  1  0
  2  7  1  0
  2 31  1  0
  3 13  1  0
  3 32  1  0
  4 18  1  0
  4 33  1  0
  5 19  1  0
  5 34  1  0
  6 21  1  0
  6 35  1  0
  7  8  1  0
  7  9  1  0
  7 22  1  0
  8 12  1  0
  8 23  1  0
  9 10  1  0
  9 24  1  0
  9 25  1  0
 10 11  2  0
 10 13  1  0
 11 14  1  0
 12 15  2  0
 12 16  1  0
 13 17  2  0
 14 18  2  0
 14 26  1  0
 15 19  1  0
 15 27  1  0
 16 20  2  0
 16 28  1  0
 17 18  1  0
 17 29  1  0
 19 21  2  0
 20 21  1  0
 20 30  1  0
M  END
> <Name>
9064

> <AbsoluteEnergy>
30.4656

> <ConfNumber>
1

> <Ionization pH>
7.5

> <IonizationIndex>
1

> <NumberOfIonizations>
1

> <NumberOfStereoisomers>
1

> <NumberOfTautomers>
1

> <OBJECTID>
9223375017565421581

> <PUBCHEM_ATOM_DEF_STEREO_COUNT>
2

> <PUBCHEM_ATOM_UDEF_STEREO_COUNT>
0

> <PUBCHEM_BONDANNOTATIONS>
10  11  8
10  13  8
11  14  8
12  15  8
12  16  8
13  17  8
14  18  8
15  19  8
16  20  8
17  18  8
19  21  8
7  2  6
20  21  8
8  12  5

> <PUBCHEM_BOND_DEF_STEREO_COUNT>
0

> <PUBCHEM_BOND_UDEF_STEREO_COUNT>
0

> <PUBCHEM_CACTVS_COMPLEXITY>
364

> <PUBCHEM_CACTVS_HBOND_ACCEPTOR>
6

> <PUBCHEM_CACTVS_HBOND_DONOR>
5

> <PUBCHEM_CACTVS_ROTATABLE_BOND>
1

> <PUBCHEM_CACTVS_SUBSKEYS>
AAADccBwOAAAAAAAAAAAAAAAAAAAAAAAAAA0YIAAAAAAAACRQAAAGgAACAAADBSgmAIwBoAABgCAAiBCAAACCAAgIAAIiAAGiIgNNyKGMRqCeCGlwBULuAfA4PwOIAABCAAIQABAAAIQABCAAAAAAAAAAA==

> <PUBCHEM_CACTVS_TAUTO_COUNT>
-1

> <PUBCHEM_CACTVS_TPSA>
110

> <PUBCHEM_COMPONENT_COUNT>
1

> <PUBCHEM_COMPOUND_CANONICALIZED>
1

> <PUBCHEM_COMPOUND_CID>
9064

> <PUBCHEM_COORDINATE_TYPE>
1
5
255

> <PUBCHEM_EXACT_MASS>
290.07903816

> <PUBCHEM_HEAVY_ATOM_COUNT>
21

> <PUBCHEM_ISOTOPIC_ATOM_COUNT>
0

> <PUBCHEM_IUPAC_CAS_NAME>
(2R,3S)-2-(3,4-dihydroxyphenyl)-3,4-dihydro-2H-1-benzopyran-3,5,7-triol

> <PUBCHEM_IUPAC_INCHI>
InChI=1S/C15H14O6/c16-8-4-11(18)9-6-13(20)15(21-14(9)5-8)7-1-2-10(17)12(19)3-7/h1-5,13,15-20H,6H2/t13-,15+/m0/s1

> <PUBCHEM_IUPAC_INCHIKEY>
PFTAWBLQPZVEMU-DZGCQCFKSA-N

> <PUBCHEM_IUPAC_NAME>
(2R,3S)-2-(3,4-dihydroxyphenyl)-3,4-dihydro-2H-chromene-3,5,7-triol

> <PUBCHEM_IUPAC_NAME_MARKUP>
(2<I>R</I>,3<I>S</I>)-2-(3,4-dihydroxyphenyl)-3,4-dihydro-2<I>H</I>-chromene-3,5,7-triol

> <PUBCHEM_IUPAC_OPENEYE_NAME>
(2R,3S)-2-(3,4-dihydroxyphenyl)chromane-3,5,7-triol

> <PUBCHEM_IUPAC_SYSTEMATIC_NAME>
(2R,3S)-2-[3,4-bis(oxidanyl)phenyl]-3,4-dihydro-2H-chromene-3,5,7-triol

> <PUBCHEM_IUPAC_TRADITIONAL_NAME>
(2R,3S)-2-(3,4-dihydroxyphenyl)chroman-3,5,7-triol

> <PUBCHEM_MOLECULAR_FORMULA>
C15H14O6

> <PUBCHEM_MOLECULAR_WEIGHT>
290.27

> <PUBCHEM_MONOISOTOPIC_WEIGHT>
290.07903816

> <PUBCHEM_OPENEYE_CAN_SMILES>
C1C(C(OC2=CC(=CC(=C21)O)O)C3=CC(=C(C=C3)O)O)O

> <PUBCHEM_OPENEYE_ISO_SMILES>
C1[C@@H]([C@H](OC2=CC(=CC(=C21)O)O)C3=CC(=C(C=C3)O)O)O

> <PUBCHEM_TOTAL_CHARGE>
0

> <PUBCHEM_XLOGP3>
0.4

> <RelativeEnergy>
0

> <StereoisomerIndex>
1

> <TautomerIndex>
1

> <LibDock Warning>
no hit found

> <ErrorText>
LibDock failed

$$$$
10787
  SciTegic09112317153D

 15 15  0  0  0  0            999 V2000
   -1.4360   -2.1640    0.0000 O   0  0  0  1  0  0
    1.3000   -2.2110    0.0000 O   0  0  0  1  0  0
   -1.3510    2.5540    0.0000 O   0  0  0  1  0  0
   -0.7520   -1.0370    0.0000 C   0  0  0  1  0  0
    0.6550   -1.0620    0.0000 C   0  0  0  1  0  0
   -0.7110    1.4020    0.0000 C   0  0  0  1  0  0
   -1.4300    0.1950    0.0000 C   0  0  0  1  0  0
    1.3750    0.1460    0.0000 C   0  0  0  1  0  0
    0.6940    1.3750    0.0000 C   0  0  0  1  0  0
   -2.5110    0.2120    0.0000 H   0  0  0  1  0  0
    2.4550    0.1300    0.0000 H   0  0  0  1  0  0
    1.2530    2.2990    0.0000 H   0  0  0  1  0  0
   -0.9610   -3.0050    0.0000 H   0  0  0  1  0  0
    2.2660   -2.2110    0.0000 H   0  0  0  1  0  0
   -0.8440    3.3770    0.0000 H   0  0  0  1  0  0
  1  4  1  0
  1 13  1  0
  2  5  1  0
  2 14  1  0
  3  6  1  0
  3 15  1  0
  4  5  2  0
  4  7  1  0
  5  8  1  0
  6  7  2  0
  6  9  1  0
  7 10  1  0
  8  9  2  0
  8 11  1  0
  9 12  1  0
M  END
> <Name>
10787

> <AbsoluteEnergy>
12.6371

> <ConfNumber>
1

> <Ionization pH>
7.5

> <IonizationIndex>
1

> <NumberOfIonizations>
1

> <NumberOfStereoisomers>
1

> <NumberOfTautomers>
1

> <OBJECTID>
9223375034745290765

> <PUBCHEM_ATOM_DEF_STEREO_COUNT>
0

> <PUBCHEM_ATOM_UDEF_STEREO_COUNT>
0

> <PUBCHEM_BONDANNOTATIONS>
4  5  8
4  7  8
5  8  8
6  7  8
6  9  8
8  9  8

> <PUBCHEM_BOND_DEF_STEREO_COUNT>
0

> <PUBCHEM_BOND_UDEF_STEREO_COUNT>
0

> <PUBCHEM_CACTVS_COMPLEXITY>
94.3

> <PUBCHEM_CACTVS_HBOND_ACCEPTOR>
3

> <PUBCHEM_CACTVS_HBOND_DONOR>
3

> <PUBCHEM_CACTVS_ROTATABLE_BOND>
0

> <PUBCHEM_CACTVS_SUBSKEYS>
AAADcYBgMAAAAAAAAAAAAAAAAAAAAAAAAAAwAAAAAAAAAAABAAAAGgAACAAACASAkAAwBoAAAgCAACBCAAACAAAgIAAIiAAGiIgJJyKCERKAcAElwBUJmAfAYAQAAQAACAAAQAACAAAQAACAAAAAAAAAAA==

> <PUBCHEM_CACTVS_TAUTO_COUNT>
-1

> <PUBCHEM_CACTVS_TPSA>
60.7

> <PUBCHEM_COMPONENT_COUNT>
1

> <PUBCHEM_COMPOUND_CANONICALIZED>
1

> <PUBCHEM_COMPOUND_CID>
10787

> <PUBCHEM_COORDINATE_TYPE>
1
5
255

> <PUBCHEM_EXACT_MASS>
126.031694049

> <PUBCHEM_HEAVY_ATOM_COUNT>
9

> <PUBCHEM_ISOTOPIC_ATOM_COUNT>
0

> <PUBCHEM_IUPAC_CAS_NAME>
benzene-1,2,4-triol

> <PUBCHEM_IUPAC_INCHI>
InChI=1S/C6H6O3/c7-4-1-2-5(8)6(9)3-4/h1-3,7-9H

> <PUBCHEM_IUPAC_INCHIKEY>
GGNQRNBDZQJCCN-UHFFFAOYSA-N

> <PUBCHEM_IUPAC_NAME>
benzene-1,2,4-triol

> <PUBCHEM_IUPAC_NAME_MARKUP>
benzene-1,2,4-triol

> <PUBCHEM_IUPAC_OPENEYE_NAME>
benzene-1,2,4-triol

> <PUBCHEM_IUPAC_SYSTEMATIC_NAME>
benzene-1,2,4-triol

> <PUBCHEM_IUPAC_TRADITIONAL_NAME>
benzene-1,2,4-triol

> <PUBCHEM_MOLECULAR_FORMULA>
C6H6O3

> <PUBCHEM_MOLECULAR_WEIGHT>
126.11

> <PUBCHEM_MONOISOTOPIC_WEIGHT>
126.031694049

> <PUBCHEM_OPENEYE_CAN_SMILES>
C1=CC(=C(C=C1O)O)O

> <PUBCHEM_OPENEYE_ISO_SMILES>
C1=CC(=C(C=C1O)O)O

> <PUBCHEM_TOTAL_CHARGE>
0

> <PUBCHEM_XLOGP3>
1.5

> <RelativeEnergy>
0

> <StereoisomerIndex>
1

> <TautomerIndex>
1

> <LibDock Warning>
no hit found

> <ErrorText>
LibDock failed

$$$$
60961
  SciTegic09112317153D

 32 34  0  0  0  0            999 V2000
    0.9490    1.3890   -1.2590 O   0  0  0  1  0  0
   -0.3980    1.6470    2.0270 O   0  0  0  1  0  0
    0.9150    3.7020    0.6210 O   0  0  0  1  0  0
    2.4980   -0.3130   -0.1560 O   0  0  0  1  0  0
   -0.4570   -0.3440   -0.5630 N   0  0  0  1  0  0
   -0.5550   -2.4670   -1.3860 N   0  0  0  1  0  0
   -2.3680   -0.5710    1.0840 N   0  0  0  1  0  0
   -3.3750   -2.7650    1.0570 N   0  0  0  1  0  0
   -2.6570   -4.4900   -0.3370 N   0  0  0  1  0  0
    0.5740    1.3020    1.0530 C   0  0  1  1  0  0
   -0.0580    1.0510   -0.3240 C   0  0  1  1  0  0
    1.5600    2.4410    0.7480 C   0  0  1  1  0  0
    2.0690    1.9810   -0.6240 C   0  0  1  1  0  0
    3.1390    0.9040   -0.4740 C   0  0  0  1  0  0
   -1.4310   -1.0500    0.0230 C   0  0  0  1  0  0
    0.0850   -1.2440   -1.4440 C   0  0  0  1  0  0
   -1.5240   -2.3400   -0.4460 C   0  0  0  1  0  0
   -2.5410   -3.2770    0.0770 C   0  0  0  1  0  0
   -3.2450   -1.4450    1.5070 C   0  0  0  1  0  0
    1.1120    0.4330    1.4130 H   0  0  0  1  0  0
   -0.8960    1.7120   -0.5090 H   0  0  0  1  0  0
    2.3420    2.5300    1.4900 H   0  0  0  1  0  0
    2.4420    2.7880   -1.2390 H   0  0  0  1  0  0
    3.6800    0.7670   -1.4090 H   0  0  0  1  0  0
    3.8220    1.1490    0.3380 H   0  0  0  1  0  0
    0.9130   -1.0240   -2.1060 H   0  0  0  1  0  0
   -3.9290   -1.1160    2.2750 H   0  0  0  1  0  0
   -0.4360    0.9150    2.6630 H   0  0  0  1  0  0
    1.6070    4.3640    0.4630 H   0  0  0  1  0  0
    3.1910   -0.9860   -0.0650 H   0  0  0  1  0  0
   -2.0440   -4.8380   -1.0480 H   0  0  0  1  0  0
   -4.0900   -3.3320    1.4660 H   0  0  0  1  0  0
  1 11  1  0
  1 13  1  0
  2 10  1  0
  2 28  1  0
  3 12  1  0
  3 29  1  0
  4 14  1  0
  4 30  1  0
  5 11  1  0
  5 15  1  0
  5 16  1  0
  6 16  2  0
  6 17  1  0
  7 15  1  0
  7 19  2  0
  8 18  1  0
  8 19  1  0
  8 32  1  0
  9 18  2  0
  9 31  1  0
 10 11  1  0
 10 12  1  0
 10 20  1  0
 11 21  1  0
 12 13  1  0
 12 22  1  0
 13 14  1  0
 13 23  1  0
 14 24  1  0
 14 25  1  0
 15 17  2  0
 16 26  1  0
 17 18  1  0
 19 27  1  0
M  END
> <Name>
60961

> <AbsoluteEnergy>
42.3135

> <ConfNumber>
1

> <Ionization pH>
7.5

> <IonizationIndex>
1

> <NumberOfIonizations>
1

> <NumberOfStereoisomers>
1

> <NumberOfTautomers>
3

> <OBJECTID>
9223375043335225357

> <PUBCHEM_ATOM_DEF_STEREO_COUNT>
4

> <PUBCHEM_ATOM_UDEF_STEREO_COUNT>
0

> <PUBCHEM_BONDANNOTATIONS>
13  14  5
15  17  8
17  18  8
10  2  6
12  3  6
11  5  5
5  15  8
5  16  8
6  16  8
6  17  8
7  15  8
7  19  8
8  18  8
8  19  8

> <PUBCHEM_BOND_DEF_STEREO_COUNT>
0

> <PUBCHEM_BOND_UDEF_STEREO_COUNT>
0

> <PUBCHEM_CACTVS_COMPLEXITY>
335

> <PUBCHEM_CACTVS_HBOND_ACCEPTOR>
8

> <PUBCHEM_CACTVS_HBOND_DONOR>
4

> <PUBCHEM_CACTVS_ROTATABLE_BOND>
2

> <PUBCHEM_CACTVS_SUBSKEYS>
AAADccBzuAAAAAAAAAAAAAAAAAAAAWJAAAAsAAAAAAAAAFgB+AAAHgAQCAAACBzhlwYF8L9MFgCgAQZhZACAgC0REKABUCAoVBCDWAJAyEAeRAgPAALTACDwMAIAAAAAAAAAAAAAAAAAAAAAAAAAAAAAAA==

> <PUBCHEM_CACTVS_TAUTO_COUNT>
3

> <PUBCHEM_CACTVS_TPSA>
140

> <PUBCHEM_COMPONENT_COUNT>
1

> <PUBCHEM_COMPOUND_CANONICALIZED>
1

> <PUBCHEM_COMPOUND_CID>
60961

> <PUBCHEM_COORDINATE_TYPE>
1
5
255

> <PUBCHEM_EXACT_MASS>
267.09675391

> <PUBCHEM_HEAVY_ATOM_COUNT>
19

> <PUBCHEM_ISOTOPIC_ATOM_COUNT>
0

> <PUBCHEM_IUPAC_CAS_NAME>
(2R,3R,4S,5R)-2-(6-aminopurin-9-yl)-5-(hydroxymethyl)oxolane-3,4-diol

> <PUBCHEM_IUPAC_INCHI>
InChI=1S/C10H13N5O4/c11-8-5-9(13-2-12-8)15(3-14-5)10-7(18)6(17)4(1-16)19-10/h2-4,6-7,10,16-18H,1H2,(H2,11,12,13)/t4-,6-,7-,10-/m1/s1

> <PUBCHEM_IUPAC_INCHIKEY>
OIRDTQYFTABQOQ-KQYNXXCUSA-N

> <PUBCHEM_IUPAC_NAME>
(2R,3R,4S,5R)-2-(6-aminopurin-9-yl)-5-(hydroxymethyl)oxolane-3,4-diol

> <PUBCHEM_IUPAC_NAME_MARKUP>
(2<I>R</I>,3<I>R</I>,4<I>S</I>,5<I>R</I>)-2-(6-aminopurin-9-yl)-5-(hydroxymethyl)oxolane-3,4-diol

> <PUBCHEM_IUPAC_OPENEYE_NAME>
(2R,3R,4S,5R)-2-(6-aminopurin-9-yl)-5-(hydroxymethyl)tetrahydrofuran-3,4-diol

> <PUBCHEM_IUPAC_SYSTEMATIC_NAME>
(2R,3R,4S,5R)-2-(6-aminopurin-9-yl)-5-(hydroxymethyl)oxolane-3,4-diol

> <PUBCHEM_IUPAC_TRADITIONAL_NAME>
(2R,3R,4S,5R)-2-adenin-9-yl-5-methylol-tetrahydrofuran-3,4-diol

> <PUBCHEM_MOLECULAR_FORMULA>
C10H13N5O4

> <PUBCHEM_MOLECULAR_WEIGHT>
267.24

> <PUBCHEM_MONOISOTOPIC_WEIGHT>
267.09675391

> <PUBCHEM_OPENEYE_CAN_SMILES>
C1=NC(=C2C(=N1)N(C=N2)C3C(C(C(O3)CO)O)O)N

> <PUBCHEM_OPENEYE_ISO_SMILES>
C1=NC(=C2C(=N1)N(C=N2)[C@H]3[C@@H]([C@@H]([C@H](O3)CO)O)O)N

> <PUBCHEM_TOTAL_CHARGE>
0

> <PUBCHEM_XLOGP3>
-1.1

> <RelativeEnergy>
0

> <StereoisomerIndex>
1

> <TautomerIndex>
2

> <LibDock Warning>
no hit found

> <ErrorText>
LibDock failed

$$$$
65064
  SciTegic09112317153D

 51 54  0  0  0  0            999 V2000
    0.5570   -0.8130   -1.5630 O   0  0  0  1  0  0
   -0.7130    0.8610    1.4600 O   0  0  0  1  0  0
    4.1440    1.9740    0.0540 O   0  0  0  1  0  0
    4.8070   -0.8600   -3.7170 O   0  0  0  1  0  0
   -0.1700    3.4990   -3.8790 O   0  0  0  1  0  0
   -4.2510    2.6650   -1.6470 O   0  0  0  1  0  0
   -0.1650    1.2800    3.5930 O   0  0  0  1  0  0
   -2.7850    4.1340   -3.4200 O   0  0  0  1  0  0
   -3.3860   -3.3950    2.0790 O   0  0  0  1  0  0
    0.0500   -3.5590    5.3200 O   0  0  0  1  0  0
   -2.0190   -4.7610    4.0070 O   0  0  0  1  0  0
    0.2280    0.2050    0.6220 C   0  0  1  1  0  0
   -0.4220   -0.1960   -0.7170 C   0  0  1  1  0  0
    1.4500    1.1100    0.3950 C   0  0  0  1  0  0
    2.3280    0.6040   -0.6900 C   0  0  0  1  0  0
   -1.0500    0.9530   -1.4350 C   0  0  0  1  0  0
    1.8290   -0.3530   -1.6230 C   0  0  0  1  0  0
    3.6650    1.0650   -0.8070 C   0  0  0  1  0  0
    2.6780   -0.8500   -2.6410 C   0  0  0  1  0  0
   -2.3960    1.2800   -1.1990 C   0  0  0  1  0  0
   -0.2960    1.7090   -2.3480 C   0  0  0  1  0  0
    4.5020    0.5700   -1.8320 C   0  0  0  1  0  0
    4.0090   -0.3900   -2.7480 C   0  0  0  1  0  0
   -0.5720    0.5270    2.7400 C   0  0  0  1  0  0
   -0.8830    2.7910   -3.0250 C   0  0  0  1  0  0
   -2.9890    2.3620   -1.8720 C   0  0  0  1  0  0
   -2.2310    3.1190   -2.7870 C   0  0  0  1  0  0
   -0.9550   -0.8770    3.0770 C   0  0  0  1  0  0
   -0.2530   -1.5830    4.0700 C   0  0  0  1  0  0
   -2.0210   -1.4970    2.4000 C   0  0  0  1  0  0
   -2.3840   -2.8180    2.7160 C   0  0  0  1  0  0
   -0.6140   -2.9030    4.3870 C   0  0  0  1  0  0
   -1.6800   -3.5230    3.7100 C   0  0  0  1  0  0
    0.5470   -0.7000    1.1420 H   0  0  0  1  0  0
   -1.2080   -0.9320   -0.5410 H   0  0  0  1  0  0
    2.0110    1.2000    1.3270 H   0  0  0  1  0  0
    1.1240    2.1180    0.1280 H   0  0  0  1  0  0
    2.3050   -1.5840   -3.3410 H   0  0  0  1  0  0
   -2.9800    0.7010   -0.4970 H   0  0  0  1  0  0
    0.7410    1.4620   -2.5320 H   0  0  0  1  0  0
    5.5180    0.9240   -1.9180 H   0  0  0  1  0  0
    0.5670   -1.1120    4.5930 H   0  0  0  1  0  0
   -2.5670   -0.9630    1.6370 H   0  0  0  1  0  0
    5.0570    2.2770   -0.0390 H   0  0  0  1  0  0
    5.7160   -0.5400   -3.7800 H   0  0  0  1  0  0
   -0.5840    4.2400   -4.3380 H   0  0  0  1  0  0
   -4.7590    2.1350   -1.0170 H   0  0  0  1  0  0
   -3.7110    4.3500   -3.2490 H   0  0  0  1  0  0
   -3.6270   -4.3030    2.3010 H   0  0  0  1  0  0
    0.7800   -3.1210    5.7770 H   0  0  0  1  0  0
   -1.5270   -5.2350    4.6910 H   0  0  0  1  0  0
  1 13  1  0
  1 17  1  0
  2 12  1  0
  2 24  1  0
  3 18  1  0
  3 44  1  0
  4 23  1  0
  4 45  1  0
  5 25  1  0
  5 46  1  0
  6 26  1  0
  6 47  1  0
  7 24  2  0
  8 27  1  0
  8 48  1  0
  9 31  1  0
  9 49  1  0
 10 32  1  0
 10 50  1  0
 11 33  1  0
 11 51  1  0
 12 13  1  0
 12 14  1  0
 12 34  1  0
 13 16  1  0
 13 35  1  0
 14 15  1  0
 14 36  1  0
 14 37  1  0
 15 17  2  0
 15 18  1  0
 16 20  2  0
 16 21  1  0
 17 19  1  0
 18 22  2  0
 19 23  2  0
 19 38  1  0
 20 26  1  0
 20 39  1  0
 21 25  2  0
 21 40  1  0
 22 23  1  0
 22 41  1  0
 24 28  1  0
 25 27  1  0
 26 27  2  0
 28 29  2  0
 28 30  1  0
 29 32  1  0
 29 42  1  0
 30 31  2  0
 30 43  1  0
 31 33  1  0
 32 33  2  0
M  END
> <Name>
65064

> <AbsoluteEnergy>
47.0563

> <ConfNumber>
1

> <Ionization pH>
8.08_PPPPPPPP

> <IonizationIndex>
1

> <NumberOfIonizations>
2

> <NumberOfStereoisomers>
1

> <NumberOfTautomers>
2

> <OBJECTID>
9223375051925159949

> <PUBCHEM_ATOM_DEF_STEREO_COUNT>
2

> <PUBCHEM_ATOM_UDEF_STEREO_COUNT>
0

> <PUBCHEM_BONDANNOTATIONS>
13  16  5
15  17  8
15  18  8
16  20  8
16  21  8
17  19  8
18  22  8
19  23  8
12  2  5
20  26  8
21  25  8
22  23  8
25  27  8
26  27  8
28  29  8
28  30  8
29  32  8
30  31  8
31  33  8
32  33  8

> <PUBCHEM_BOND_DEF_STEREO_COUNT>
0

> <PUBCHEM_BOND_UDEF_STEREO_COUNT>
0

> <PUBCHEM_CACTVS_COMPLEXITY>
667

> <PUBCHEM_CACTVS_HBOND_ACCEPTOR>
11

> <PUBCHEM_CACTVS_HBOND_DONOR>
8

> <PUBCHEM_CACTVS_ROTATABLE_BOND>
4

> <PUBCHEM_CACTVS_SUBSKEYS>
AAADceB4PAAAAAAAAAAAAAAAAAAAAAAAAAA0YMEAAAAAAACRUAAAGgAACAAADBSgmAIwDoAABgCIAiDSCAACCAAkIAAAiAEGiMgNJzKGNRqCeSGlwBULuYfK7PzOIAABCAAIQABAAAIQABCAAAAAAAAAAA==

> <PUBCHEM_CACTVS_TAUTO_COUNT>
1000

> <PUBCHEM_CACTVS_TPSA>
197

> <PUBCHEM_COMPONENT_COUNT>
1

> <PUBCHEM_COMPOUND_CANONICALIZED>
1

> <PUBCHEM_COMPOUND_CID>
65064

> <PUBCHEM_COORDINATE_TYPE>
1
5
255

> <PUBCHEM_EXACT_MASS>
458.08491139

> <PUBCHEM_HEAVY_ATOM_COUNT>
33

> <PUBCHEM_ISOTOPIC_ATOM_COUNT>
0

> <PUBCHEM_IUPAC_CAS_NAME>
3,4,5-trihydroxybenzoic acid [(2R,3R)-5,7-dihydroxy-2-(3,4,5-trihydroxyphenyl)-3,4-dihydro-2H-1-benzopyran-3-yl] ester

> <PUBCHEM_IUPAC_INCHI>
InChI=1S/C22H18O11/c23-10-5-12(24)11-7-18(33-22(31)9-3-15(27)20(30)16(28)4-9)21(32-17(11)6-10)8-1-13(25)19(29)14(26)2-8/h1-6,18,21,23-30H,7H2/t18-,21-/m1/s1

> <PUBCHEM_IUPAC_INCHIKEY>
WMBWREPUVVBILR-WIYYLYMNSA-N

> <PUBCHEM_IUPAC_NAME>
[(2R,3R)-5,7-dihydroxy-2-(3,4,5-trihydroxyphenyl)-3,4-dihydro-2H-chromen-3-yl] 3,4,5-trihydroxybenzoate

> <PUBCHEM_IUPAC_NAME_MARKUP>
[(2<I>R</I>,3<I>R</I>)-5,7-dihydroxy-2-(3,4,5-trihydroxyphenyl)-3,4-dihydro-2<I>H</I>-chromen-3-yl] 3,4,5-trihydroxybenzoate

> <PUBCHEM_IUPAC_OPENEYE_NAME>
[(2R,3R)-5,7-dihydroxy-2-(3,4,5-trihydroxyphenyl)chroman-3-yl] 3,4,5-trihydroxybenzoate

> <PUBCHEM_IUPAC_SYSTEMATIC_NAME>
[(2R,3R)-5,7-bis(oxidanyl)-2-[3,4,5-tris(oxidanyl)phenyl]-3,4-dihydro-2H-chromen-3-yl] 3,4,5-tris(oxidanyl)benzoate

> <PUBCHEM_IUPAC_TRADITIONAL_NAME>
3,4,5-trihydroxybenzoic acid [(2R,3R)-5,7-dihydroxy-2-(3,4,5-trihydroxyphenyl)chroman-3-yl] ester

> <PUBCHEM_MOLECULAR_FORMULA>
C22H18O11

> <PUBCHEM_MOLECULAR_WEIGHT>
458.4

> <PUBCHEM_MONOISOTOPIC_WEIGHT>
458.08491139

> <PUBCHEM_OPENEYE_CAN_SMILES>
C1C(C(OC2=CC(=CC(=C21)O)O)C3=CC(=C(C(=C3)O)O)O)OC(=O)C4=CC(=C(C(=C4)O)O)O

> <PUBCHEM_OPENEYE_ISO_SMILES>
C1[C@H]([C@H](OC2=CC(=CC(=C21)O)O)C3=CC(=C(C(=C3)O)O)O)OC(=O)C4=CC(=C(C(=C4)O)O)O

> <PUBCHEM_TOTAL_CHARGE>
0

> <PUBCHEM_XLOGP3>
1.2

> <RelativeEnergy>
0

> <StereoisomerIndex>
1

> <TautomerIndex>
1

> <LibDock Warning>
no hit found

> <ErrorText>
LibDock failed

$$$$
65064
  SciTegic09112317153D

 51 54  0  0  0  0            999 V2000
    0.2100   -0.3380    2.3920 O   0  0  0  1  0  0
   -0.5200   -0.6630   -1.2060 O   0  0  0  1  0  0
   -4.5910   -0.1960    1.9600 O   0  0  0  1  0  0
   -2.5510   -0.1080    6.2650 O   0  0  0  1  0  0
    2.3600    4.2310    1.8200 O   0  0  0  1  0  0
   -0.8510    3.7550   -1.6120 O   0  0  0  1  0  0
   -1.4730   -2.7020   -1.6430 O   0  0  0  1  0  0
    0.8580    5.3260   -0.1770 O   0  0  0  1  0  0
    1.3680   -4.7240   -5.1550 O   0  0  0  1  0  0
    3.3900   -0.3900   -4.2280 O   0  0  0  1  0  0
    3.3030   -2.8000   -5.5630 O   0  0  0  1  0  0
   -0.6890   -0.8640    0.1920 C   0  0  1  1  0  0
    0.4310   -0.1610    0.9840 C   0  0  1  1  0  0
   -2.0780   -0.3630    0.6290 C   0  0  0  1  0  0
   -2.2020   -0.2830    2.1060 C   0  0  0  1  0  0
    0.5450    1.2960    0.6760 C   0  0  0  1  0  0
   -1.0320   -0.2820    2.9230 C   0  0  0  1  0  0
   -3.4820   -0.2090    2.7150 C   0  0  0  1  0  0
   -1.1600   -0.2300    4.3320 C   0  0  0  1  0  0
   -0.2300    1.8610   -0.3520 C   0  0  0  1  0  0
    1.4250    2.1060    1.4140 C   0  0  0  1  0  0
   -3.5980   -0.1490    4.1230 C   0  0  0  1  0  0
   -2.4380   -0.1620    4.9320 C   0  0  0  1  0  0
   -0.5210   -1.8050   -1.8860 C   0  0  0  1  0  0
    1.5330    3.4770    1.1270 C   0  0  0  1  0  0
   -0.1250    3.2320   -0.6460 C   0  0  0  1  0  0
    0.7580    4.0410    0.0950 C   0  0  0  1  0  0
    0.4290   -2.0500   -2.8070 C   0  0  0  1  0  0
    1.4870   -1.0570   -3.0800 C   0  0  0  1  0  0
    0.4300   -3.3170   -3.5660 C   0  0  0  1  0  0
    1.3840   -3.5750   -4.4840 C   0  0  0  1  0  0
    2.4450   -1.2980   -3.9960 C   0  0  0  1  0  0
    2.4430   -2.5750   -4.7440 C   0  0  0  1  0  0
   -0.6250   -1.9380    0.3730 H   0  0  0  1  0  0
    1.3910   -0.6150    0.7470 H   0  0  0  1  0  0
   -2.8440   -1.0200    0.2170 H   0  0  0  1  0  0
   -2.2640    0.6300    0.2170 H   0  0  0  1  0  0
   -0.2760   -0.2430    4.9510 H   0  0  0  1  0  0
   -0.9070    1.2410   -0.9220 H   0  0  0  1  0  0
    2.0210    1.6770    2.2080 H   0  0  0  1  0  0
   -4.5750   -0.0910    4.5810 H   0  0  0  1  0  0
    1.4970   -0.1210   -2.5390 H   0  0  0  1  0  0
   -0.3410   -4.0530   -3.3840 H   0  0  0  1  0  0
   -4.5080   -0.1790    0.9990 H   0  0  0  1  0  0
   -3.4290   -0.0630    6.6640 H   0  0  0  1  0  0
    2.4290    5.1720    1.6170 H   0  0  0  1  0  0
   -1.4520    3.1870   -2.1110 H   0  0  0  1  0  0
    0.3220    5.7030   -0.8860 H   0  0  0  1  0  0
    2.0560   -4.8980   -5.8120 H   0  0  0  1  0  0
    3.3790    0.4410   -3.7320 H   0  0  0  1  0  0
   -2.2710   -2.4290   -1.1740 H   0  0  0  1  0  0
  1 13  1  0
  1 17  1  0
  2 12  1  0
  2 24  1  0
  3 18  1  0
  3 44  1  0
  4 23  1  0
  4 45  1  0
  5 25  1  0
  5 46  1  0
  6 26  1  0
  6 47  1  0
  7 24  1  0
  7 51  1  0
  8 27  1  0
  8 48  1  0
  9 31  1  0
  9 49  1  0
 10 32  1  0
 10 50  1  0
 11 33  2  0
 12 13  1  0
 12 14  1  0
 12 34  1  0
 13 16  1  0
 13 35  1  0
 14 15  1  0
 14 36  1  0
 14 37  1  0
 15 17  2  0
 15 18  1  0
 16 20  2  0
 16 21  1  0
 17 19  1  0
 18 22  2  0
 19 23  2  0
 19 38  1  0
 20 26  1  0
 20 39  1  0
 21 25  2  0
 21 40  1  0
 22 23  1  0
 22 41  1  0
 24 28  2  0
 25 27  1  0
 26 27  2  0
 28 29  1  0
 28 30  1  0
 29 32  2  0
 29 42  1  0
 30 31  2  0
 30 43  1  0
 31 33  1  0
 32 33  1  0
M  END
> <Name>
65064

> <AbsoluteEnergy>
42.6563

> <ConfNumber>
1

> <Ionization pH>
8.08_PPPPPPPP

> <IonizationIndex>
1

> <NumberOfIonizations>
2

> <NumberOfStereoisomers>
1

> <NumberOfTautomers>
2

> <OBJECTID>
9223375056220127245

> <PUBCHEM_ATOM_DEF_STEREO_COUNT>
2

> <PUBCHEM_ATOM_UDEF_STEREO_COUNT>
0

> <PUBCHEM_BONDANNOTATIONS>
13  16  5
15  17  8
15  18  8
16  20  8
16  21  8
17  19  8
18  22  8
19  23  8
12  2  5
20  26  8
21  25  8
22  23  8
25  27  8
26  27  8
28  29  8
28  30  8
29  32  8
30  31  8
31  33  8
32  33  8

> <PUBCHEM_BOND_DEF_STEREO_COUNT>
0

> <PUBCHEM_BOND_UDEF_STEREO_COUNT>
0

> <PUBCHEM_CACTVS_COMPLEXITY>
667

> <PUBCHEM_CACTVS_HBOND_ACCEPTOR>
11

> <PUBCHEM_CACTVS_HBOND_DONOR>
8

> <PUBCHEM_CACTVS_ROTATABLE_BOND>
4

> <PUBCHEM_CACTVS_SUBSKEYS>
AAADceB4PAAAAAAAAAAAAAAAAAAAAAAAAAA0YMEAAAAAAACRUAAAGgAACAAADBSgmAIwDoAABgCIAiDSCAACCAAkIAAAiAEGiMgNJzKGNRqCeSGlwBULuYfK7PzOIAABCAAIQABAAAIQABCAAAAAAAAAAA==

> <PUBCHEM_CACTVS_TAUTO_COUNT>
1000

> <PUBCHEM_CACTVS_TPSA>
197

> <PUBCHEM_COMPONENT_COUNT>
1

> <PUBCHEM_COMPOUND_CANONICALIZED>
1

> <PUBCHEM_COMPOUND_CID>
65064

> <PUBCHEM_COORDINATE_TYPE>
1
5
255

> <PUBCHEM_EXACT_MASS>
458.08491139

> <PUBCHEM_HEAVY_ATOM_COUNT>
33

> <PUBCHEM_ISOTOPIC_ATOM_COUNT>
0

> <PUBCHEM_IUPAC_CAS_NAME>
3,4,5-trihydroxybenzoic acid [(2R,3R)-5,7-dihydroxy-2-(3,4,5-trihydroxyphenyl)-3,4-dihydro-2H-1-benzopyran-3-yl] ester

> <PUBCHEM_IUPAC_INCHI>
InChI=1S/C22H18O11/c23-10-5-12(24)11-7-18(33-22(31)9-3-15(27)20(30)16(28)4-9)21(32-17(11)6-10)8-1-13(25)19(29)14(26)2-8/h1-6,18,21,23-30H,7H2/t18-,21-/m1/s1

> <PUBCHEM_IUPAC_INCHIKEY>
WMBWREPUVVBILR-WIYYLYMNSA-N

> <PUBCHEM_IUPAC_NAME>
[(2R,3R)-5,7-dihydroxy-2-(3,4,5-trihydroxyphenyl)-3,4-dihydro-2H-chromen-3-yl] 3,4,5-trihydroxybenzoate

> <PUBCHEM_IUPAC_NAME_MARKUP>
[(2<I>R</I>,3<I>R</I>)-5,7-dihydroxy-2-(3,4,5-trihydroxyphenyl)-3,4-dihydro-2<I>H</I>-chromen-3-yl] 3,4,5-trihydroxybenzoate

> <PUBCHEM_IUPAC_OPENEYE_NAME>
[(2R,3R)-5,7-dihydroxy-2-(3,4,5-trihydroxyphenyl)chroman-3-yl] 3,4,5-trihydroxybenzoate

> <PUBCHEM_IUPAC_SYSTEMATIC_NAME>
[(2R,3R)-5,7-bis(oxidanyl)-2-[3,4,5-tris(oxidanyl)phenyl]-3,4-dihydro-2H-chromen-3-yl] 3,4,5-tris(oxidanyl)benzoate

> <PUBCHEM_IUPAC_TRADITIONAL_NAME>
3,4,5-trihydroxybenzoic acid [(2R,3R)-5,7-dihydroxy-2-(3,4,5-trihydroxyphenyl)chroman-3-yl] ester

> <PUBCHEM_MOLECULAR_FORMULA>
C22H18O11

> <PUBCHEM_MOLECULAR_WEIGHT>
458.4

> <PUBCHEM_MONOISOTOPIC_WEIGHT>
458.08491139

> <PUBCHEM_OPENEYE_CAN_SMILES>
C1C(C(OC2=CC(=CC(=C21)O)O)C3=CC(=C(C(=C3)O)O)O)OC(=O)C4=CC(=C(C(=C4)O)O)O

> <PUBCHEM_OPENEYE_ISO_SMILES>
C1[C@H]([C@H](OC2=CC(=CC(=C21)O)O)C3=CC(=C(C(=C3)O)O)O)OC(=O)C4=CC(=C(C(=C4)O)O)O

> <PUBCHEM_TOTAL_CHARGE>
0

> <PUBCHEM_XLOGP3>
1.2

> <RelativeEnergy>
0

> <StereoisomerIndex>
1

> <TautomerIndex>
2

> <LibDock Warning>
no hit found

> <ErrorText>
LibDock failed

$$$$
65064
  SciTegic09112317153D

 50 53  0  0  0  0            999 V2000
    0.2140   -0.8690   -1.6020 O   0  0  0  1  0  0
   -0.5200    1.0050    1.4830 O   0  0  0  1  0  0
    4.1910    1.6540   -0.5650 O   0  0  0  1  0  0
    4.1340   -1.3480   -4.2630 O   0  0  0  1  0  0
   -4.3070    3.0140   -1.2230 O   0  5  0  1  0  0
   -0.4530    3.4080   -3.9940 O   0  0  0  1  0  0
    0.3230    1.4340    3.5150 O   0  0  0  1  0  0
   -2.9300    4.2810   -3.2430 O   0  0  0  1  0  0
   -3.4570   -2.9690    2.6070 O   0  0  0  1  0  0
    0.3570   -3.3640    5.3710 O   0  0  0  1  0  0
   -1.9670   -4.4050    4.3880 O   0  0  0  1  0  0
    0.2500    0.2450    0.5630 C   0  0  1  1  0  0
   -0.5970   -0.1440   -0.6670 C   0  0  1  1  0  0
    1.5010    1.0360    0.1460 C   0  0  0  1  0  0
    2.1890    0.4190   -1.0180 C   0  0  0  1  0  0
   -1.2160    1.0310   -1.3480 C   0  0  0  1  0  0
    1.5000   -0.5200   -1.8400 C   0  0  0  1  0  0
    3.5340    0.7640   -1.3200 C   0  0  0  1  0  0
    2.1690   -1.1200   -2.9310 C   0  0  0  1  0  0
   -0.5270    1.6890   -2.3800 C   0  0  0  1  0  0
   -2.4910    1.4790   -0.9610 C   0  0  0  1  0  0
    4.1900    0.1650   -2.4210 C   0  0  0  1  0  0
    3.5090   -0.7770   -3.2240 C   0  0  0  1  0  0
   -0.2500    0.6950    2.7490 C   0  0  0  1  0  0
   -3.0740    2.5840   -1.6040 C   0  0  0  1  0  0
   -1.1080    2.7950   -3.0270 C   0  0  0  1  0  0
   -2.3840    3.2450   -2.6380 C   0  0  0  1  0  0
   -0.7070   -0.6590    3.1830 C   0  0  0  1  0  0
    0.0610   -1.4000    4.1000 C   0  0  0  1  0  0
   -1.9030   -1.1970    2.6770 C   0  0  0  1  0  0
   -2.3340   -2.4700    3.0850 C   0  0  0  1  0  0
   -0.3670   -2.6740    4.5100 C   0  0  0  1  0  0
   -1.5640   -3.2100    4.0040 C   0  0  0  1  0  0
    0.5600   -0.6660    1.0770 H   0  0  0  1  0  0
   -1.4090   -0.8030   -0.3610 H   0  0  0  1  0  0
    2.1820    1.1080    0.9950 H   0  0  0  1  0  0
    1.2260    2.0580   -0.1210 H   0  0  0  1  0  0
    1.6510   -1.8420   -3.5470 H   0  0  0  1  0  0
    0.4530    1.3470   -2.6800 H   0  0  0  1  0  0
   -3.0250    0.9740   -0.1680 H   0  0  0  1  0  0
    5.2120    0.4300   -2.6470 H   0  0  0  1  0  0
    0.9820   -0.9930    4.4920 H   0  0  0  1  0  0
   -2.4970   -0.6330    1.9720 H   0  0  0  1  0  0
    5.1040    1.8780   -0.7840 H   0  0  0  1  0  0
    3.6610   -1.9910   -4.8050 H   0  0  0  1  0  0
    0.4210    3.0880   -4.2480 H   0  0  0  1  0  0
   -3.8080    4.5800   -2.9680 H   0  0  0  1  0  0
   -3.7440   -3.8440    2.8930 H   0  0  0  1  0  0
    1.1770   -2.9840    5.7100 H   0  0  0  1  0  0
   -1.4310   -4.9060    5.0170 H   0  0  0  1  0  0
  1 13  1  0
  1 17  1  0
  2 12  1  0
  2 24  1  0
  3 18  1  0
  3 44  1  0
  4 23  1  0
  4 45  1  0
  5 25  1  0
  6 26  1  0
  6 46  1  0
  7 24  2  0
  8 27  1  0
  8 47  1  0
  9 31  1  0
  9 48  1  0
 10 32  1  0
 10 49  1  0
 11 33  1  0
 11 50  1  0
 12 13  1  0
 12 14  1  0
 12 34  1  0
 13 16  1  0
 13 35  1  0
 14 15  1  0
 14 36  1  0
 14 37  1  0
 15 17  2  0
 15 18  1  0
 16 20  2  0
 16 21  1  0
 17 19  1  0
 18 22  2  0
 19 23  2  0
 19 38  1  0
 20 26  1  0
 20 39  1  0
 21 25  2  0
 21 40  1  0
 22 23  1  0
 22 41  1  0
 24 28  1  0
 25 27  1  0
 26 27  2  0
 28 29  2  0
 28 30  1  0
 29 32  1  0
 29 42  1  0
 30 31  2  0
 30 43  1  0
 31 33  1  0
 32 33  2  0
M  CHG  1   5  -1
M  END
> <Name>
65064

> <AbsoluteEnergy>
46.0343

> <ConfNumber>
1

> <Ionization pH>
8.08_DPPPPPPP

> <IonizationIndex>
2

> <NumberOfIonizations>
2

> <NumberOfStereoisomers>
1

> <NumberOfTautomers>
2

> <OBJECTID>
9223375060515094541

> <PUBCHEM_ATOM_DEF_STEREO_COUNT>
2

> <PUBCHEM_ATOM_UDEF_STEREO_COUNT>
0

> <PUBCHEM_BONDANNOTATIONS>
13  16  5
15  17  8
15  18  8
16  20  8
16  21  8
17  19  8
18  22  8
19  23  8
12  2  5
20  26  8
21  25  8
22  23  8
25  27  8
26  27  8
28  29  8
28  30  8
29  32  8
30  31  8
31  33  8
32  33  8

> <PUBCHEM_BOND_DEF_STEREO_COUNT>
0

> <PUBCHEM_BOND_UDEF_STEREO_COUNT>
0

> <PUBCHEM_CACTVS_COMPLEXITY>
667

> <PUBCHEM_CACTVS_HBOND_ACCEPTOR>
11

> <PUBCHEM_CACTVS_HBOND_DONOR>
8

> <PUBCHEM_CACTVS_ROTATABLE_BOND>
4

> <PUBCHEM_CACTVS_SUBSKEYS>
AAADceB4PAAAAAAAAAAAAAAAAAAAAAAAAAA0YMEAAAAAAACRUAAAGgAACAAADBSgmAIwDoAABgCIAiDSCAACCAAkIAAAiAEGiMgNJzKGNRqCeSGlwBULuYfK7PzOIAABCAAIQABAAAIQABCAAAAAAAAAAA==

> <PUBCHEM_CACTVS_TAUTO_COUNT>
1000

> <PUBCHEM_CACTVS_TPSA>
197

> <PUBCHEM_COMPONENT_COUNT>
1

> <PUBCHEM_COMPOUND_CANONICALIZED>
1

> <PUBCHEM_COMPOUND_CID>
65064

> <PUBCHEM_COORDINATE_TYPE>
1
5
255

> <PUBCHEM_EXACT_MASS>
458.08491139

> <PUBCHEM_HEAVY_ATOM_COUNT>
33

> <PUBCHEM_ISOTOPIC_ATOM_COUNT>
0

> <PUBCHEM_IUPAC_CAS_NAME>
3,4,5-trihydroxybenzoic acid [(2R,3R)-5,7-dihydroxy-2-(3,4,5-trihydroxyphenyl)-3,4-dihydro-2H-1-benzopyran-3-yl] ester

> <PUBCHEM_IUPAC_INCHI>
InChI=1S/C22H18O11/c23-10-5-12(24)11-7-18(33-22(31)9-3-15(27)20(30)16(28)4-9)21(32-17(11)6-10)8-1-13(25)19(29)14(26)2-8/h1-6,18,21,23-30H,7H2/t18-,21-/m1/s1

> <PUBCHEM_IUPAC_INCHIKEY>
WMBWREPUVVBILR-WIYYLYMNSA-N

> <PUBCHEM_IUPAC_NAME>
[(2R,3R)-5,7-dihydroxy-2-(3,4,5-trihydroxyphenyl)-3,4-dihydro-2H-chromen-3-yl] 3,4,5-trihydroxybenzoate

> <PUBCHEM_IUPAC_NAME_MARKUP>
[(2<I>R</I>,3<I>R</I>)-5,7-dihydroxy-2-(3,4,5-trihydroxyphenyl)-3,4-dihydro-2<I>H</I>-chromen-3-yl] 3,4,5-trihydroxybenzoate

> <PUBCHEM_IUPAC_OPENEYE_NAME>
[(2R,3R)-5,7-dihydroxy-2-(3,4,5-trihydroxyphenyl)chroman-3-yl] 3,4,5-trihydroxybenzoate

> <PUBCHEM_IUPAC_SYSTEMATIC_NAME>
[(2R,3R)-5,7-bis(oxidanyl)-2-[3,4,5-tris(oxidanyl)phenyl]-3,4-dihydro-2H-chromen-3-yl] 3,4,5-tris(oxidanyl)benzoate

> <PUBCHEM_IUPAC_TRADITIONAL_NAME>
3,4,5-trihydroxybenzoic acid [(2R,3R)-5,7-dihydroxy-2-(3,4,5-trihydroxyphenyl)chroman-3-yl] ester

> <PUBCHEM_MOLECULAR_FORMULA>
C22H18O11

> <PUBCHEM_MOLECULAR_WEIGHT>
458.4

> <PUBCHEM_MONOISOTOPIC_WEIGHT>
458.08491139

> <PUBCHEM_OPENEYE_CAN_SMILES>
C1C(C(OC2=CC(=CC(=C21)O)O)C3=CC(=C(C(=C3)O)O)O)OC(=O)C4=CC(=C(C(=C4)O)O)O

> <PUBCHEM_OPENEYE_ISO_SMILES>
C1[C@H]([C@H](OC2=CC(=CC(=C21)O)O)C3=CC(=C(C(=C3)O)O)O)OC(=O)C4=CC(=C(C(=C4)O)O)O

> <PUBCHEM_TOTAL_CHARGE>
0

> <PUBCHEM_XLOGP3>
1.2

> <RelativeEnergy>
0

> <StereoisomerIndex>
1

> <TautomerIndex>
1

> <LibDock Warning>
no hit found

> <ErrorText>
LibDock failed

$$$$
65064
  SciTegic09112317153D

 50 53  0  0  0  0            999 V2000
    0.6440   -0.3200   -1.9740 O   0  0  0  1  0  0
   -0.5200    0.1820    1.4850 O   0  0  0  1  0  0
    3.5260    3.0290   -0.0430 O   0  0  0  1  0  0
    4.3140    1.4230   -4.4590 O   0  0  0  1  0  0
   -2.9960    3.6890    0.2840 O   0  5  0  1  0  0
   -3.5420    1.6880   -4.0030 O   0  0  0  1  0  0
    0.6120    0.4710    3.4590 O   0  0  0  1  0  0
   -4.2150    3.6110   -2.1820 O   0  0  0  1  0  0
    0.5480   -3.9660    5.6470 O   0  0  0  1  0  0
   -1.9490   -4.5560    1.5020 O   0  0  0  1  0  0
   -0.8870   -5.5080    3.8640 O   0  0  0  1  0  0
    0.4130    0.0490    0.4210 C   0  0  1  1  0  0
   -0.3130   -0.2370   -0.9090 C   0  0  1  1  0  0
    1.2770    1.3170    0.3190 C   0  0  0  1  0  0
    2.0680    1.3550   -0.9380 C   0  0  0  1  0  0
   -1.3480    0.7850   -1.2450 C   0  0  0  1  0  0
    1.7070    0.5160   -2.0330 C   0  0  0  1  0  0
    3.1830    2.2260   -1.0580 C   0  0  0  1  0  0
    2.4780    0.5390   -3.2180 C   0  0  0  1  0  0
   -1.9790    0.7590   -2.5020 C   0  0  0  1  0  0
   -1.6930    1.7740   -0.3080 C   0  0  0  1  0  0
    3.9410    2.2490   -2.2520 C   0  0  0  1  0  0
    3.5910    1.4040   -3.3300 C   0  0  0  1  0  0
   -0.0590   -0.3200    2.6280 C   0  0  0  1  0  0
   -2.6680    2.7350   -0.6270 C   0  0  0  1  0  0
   -2.9540    1.7190   -2.8230 C   0  0  0  1  0  0
   -3.3000    2.7100   -1.8840 C   0  0  0  1  0  0
   -0.2720   -1.6100    2.9390 C   0  0  0  1  0  0
   -1.0410   -2.4860    2.0320 C   0  0  0  1  0  0
    0.2590   -2.1790    4.1950 C   0  0  0  1  0  0
    0.0570   -3.4750    4.5100 C   0  0  0  1  0  0
   -1.2520   -3.7850    2.3340 C   0  0  0  1  0  0
   -0.7080   -4.3450    3.5910 C   0  0  0  1  0  0
    1.0550   -0.8000    0.6600 H   0  0  0  1  0  0
   -0.8210   -1.2000   -0.8520 H   0  0  0  1  0  0
    1.9380    1.3750    1.1840 H   0  0  0  1  0  0
    0.6420    2.2050    0.3510 H   0  0  0  1  0  0
    2.2150   -0.1050   -4.0450 H   0  0  0  1  0  0
   -1.7150    0.0020   -3.2260 H   0  0  0  1  0  0
   -1.2120    1.7960    0.6590 H   0  0  0  1  0  0
    4.7880    2.9130   -2.3390 H   0  0  0  1  0  0
   -1.4430   -2.0860    1.1120 H   0  0  0  1  0  0
    0.8180   -1.5520    4.8740 H   0  0  0  1  0  0
    4.2860    3.6160   -0.1400 H   0  0  0  1  0  0
    4.0670    0.8430   -5.1890 H   0  0  0  1  0  0
   -3.2930    1.0030   -4.6360 H   0  0  0  1  0  0
   -4.4460    4.2850   -1.5300 H   0  0  0  1  0  0
    0.3980   -4.8960    5.8620 H   0  0  0  1  0  0
   -2.2990   -4.1770    0.6870 H   0  0  0  1  0  0
    0.7530    1.3970    3.2220 H   0  0  0  1  0  0
  1 13  1  0
  1 17  1  0
  2 12  1  0
  2 24  1  0
  3 18  1  0
  3 44  1  0
  4 23  1  0
  4 45  1  0
  5 25  1  0
  6 26  1  0
  6 46  1  0
  7 24  1  0
  7 50  1  0
  8 27  1  0
  8 47  1  0
  9 31  1  0
  9 48  1  0
 10 32  1  0
 10 49  1  0
 11 33  2  0
 12 13  1  0
 12 14  1  0
 12 34  1  0
 13 16  1  0
 13 35  1  0
 14 15  1  0
 14 36  1  0
 14 37  1  0
 15 17  2  0
 15 18  1  0
 16 20  2  0
 16 21  1  0
 17 19  1  0
 18 22  2  0
 19 23  2  0
 19 38  1  0
 20 26  1  0
 20 39  1  0
 21 25  2  0
 21 40  1  0
 22 23  1  0
 22 41  1  0
 24 28  2  0
 25 27  1  0
 26 27  2  0
 28 29  1  0
 28 30  1  0
 29 32  2  0
 29 42  1  0
 30 31  2  0
 30 43  1  0
 31 33  1  0
 32 33  1  0
M  CHG  1   5  -1
M  END
> <Name>
65064

> <AbsoluteEnergy>
41.5752

> <ConfNumber>
1

> <Ionization pH>
8.08_DPPPPPPP

> <IonizationIndex>
2

> <NumberOfIonizations>
2

> <NumberOfStereoisomers>
1

> <NumberOfTautomers>
2

> <OBJECTID>
9223375064810061837

> <PUBCHEM_ATOM_DEF_STEREO_COUNT>
2

> <PUBCHEM_ATOM_UDEF_STEREO_COUNT>
0

> <PUBCHEM_BONDANNOTATIONS>
13  16  5
15  17  8
15  18  8
16  20  8
16  21  8
17  19  8
18  22  8
19  23  8
12  2  5
20  26  8
21  25  8
22  23  8
25  27  8
26  27  8
28  29  8
28  30  8
29  32  8
30  31  8
31  33  8
32  33  8

> <PUBCHEM_BOND_DEF_STEREO_COUNT>
0

> <PUBCHEM_BOND_UDEF_STEREO_COUNT>
0

> <PUBCHEM_CACTVS_COMPLEXITY>
667

> <PUBCHEM_CACTVS_HBOND_ACCEPTOR>
11

> <PUBCHEM_CACTVS_HBOND_DONOR>
8

> <PUBCHEM_CACTVS_ROTATABLE_BOND>
4

> <PUBCHEM_CACTVS_SUBSKEYS>
AAADceB4PAAAAAAAAAAAAAAAAAAAAAAAAAA0YMEAAAAAAACRUAAAGgAACAAADBSgmAIwDoAABgCIAiDSCAACCAAkIAAAiAEGiMgNJzKGNRqCeSGlwBULuYfK7PzOIAABCAAIQABAAAIQABCAAAAAAAAAAA==

> <PUBCHEM_CACTVS_TAUTO_COUNT>
1000

> <PUBCHEM_CACTVS_TPSA>
197

> <PUBCHEM_COMPONENT_COUNT>
1

> <PUBCHEM_COMPOUND_CANONICALIZED>
1

> <PUBCHEM_COMPOUND_CID>
65064

> <PUBCHEM_COORDINATE_TYPE>
1
5
255

> <PUBCHEM_EXACT_MASS>
458.08491139

> <PUBCHEM_HEAVY_ATOM_COUNT>
33

> <PUBCHEM_ISOTOPIC_ATOM_COUNT>
0

> <PUBCHEM_IUPAC_CAS_NAME>
3,4,5-trihydroxybenzoic acid [(2R,3R)-5,7-dihydroxy-2-(3,4,5-trihydroxyphenyl)-3,4-dihydro-2H-1-benzopyran-3-yl] ester

> <PUBCHEM_IUPAC_INCHI>
InChI=1S/C22H18O11/c23-10-5-12(24)11-7-18(33-22(31)9-3-15(27)20(30)16(28)4-9)21(32-17(11)6-10)8-1-13(25)19(29)14(26)2-8/h1-6,18,21,23-30H,7H2/t18-,21-/m1/s1

> <PUBCHEM_IUPAC_INCHIKEY>
WMBWREPUVVBILR-WIYYLYMNSA-N

> <PUBCHEM_IUPAC_NAME>
[(2R,3R)-5,7-dihydroxy-2-(3,4,5-trihydroxyphenyl)-3,4-dihydro-2H-chromen-3-yl] 3,4,5-trihydroxybenzoate

> <PUBCHEM_IUPAC_NAME_MARKUP>
[(2<I>R</I>,3<I>R</I>)-5,7-dihydroxy-2-(3,4,5-trihydroxyphenyl)-3,4-dihydro-2<I>H</I>-chromen-3-yl] 3,4,5-trihydroxybenzoate

> <PUBCHEM_IUPAC_OPENEYE_NAME>
[(2R,3R)-5,7-dihydroxy-2-(3,4,5-trihydroxyphenyl)chroman-3-yl] 3,4,5-trihydroxybenzoate

> <PUBCHEM_IUPAC_SYSTEMATIC_NAME>
[(2R,3R)-5,7-bis(oxidanyl)-2-[3,4,5-tris(oxidanyl)phenyl]-3,4-dihydro-2H-chromen-3-yl] 3,4,5-tris(oxidanyl)benzoate

> <PUBCHEM_IUPAC_TRADITIONAL_NAME>
3,4,5-trihydroxybenzoic acid [(2R,3R)-5,7-dihydroxy-2-(3,4,5-trihydroxyphenyl)chroman-3-yl] ester

> <PUBCHEM_MOLECULAR_FORMULA>
C22H18O11

> <PUBCHEM_MOLECULAR_WEIGHT>
458.4

> <PUBCHEM_MONOISOTOPIC_WEIGHT>
458.08491139

> <PUBCHEM_OPENEYE_CAN_SMILES>
C1C(C(OC2=CC(=CC(=C21)O)O)C3=CC(=C(C(=C3)O)O)O)OC(=O)C4=CC(=C(C(=C4)O)O)O

> <PUBCHEM_OPENEYE_ISO_SMILES>
C1[C@H]([C@H](OC2=CC(=CC(=C21)O)O)C3=CC(=C(C(=C3)O)O)O)OC(=O)C4=CC(=C(C(=C4)O)O)O

> <PUBCHEM_TOTAL_CHARGE>
0

> <PUBCHEM_XLOGP3>
1.2

> <RelativeEnergy>
0

> <StereoisomerIndex>
1

> <TautomerIndex>
2

> <LibDock Warning>
no hit found

> <ErrorText>
LibDock failed

$$$$
65084
  SciTegic09112317153D

 36 38  0  0  0  0            999 V2000
    0.2760   -0.0720   -1.8700 O   0  0  0  1  0  0
   -0.5810   -2.8600   -1.8120 O   0  0  0  1  0  0
    2.5950   -2.3060    1.7220 O   0  0  0  1  0  0
    4.9040    0.7540   -1.1090 O   0  0  0  1  0  0
   -0.5420    2.7720    2.1190 O   0  0  0  1  0  0
   -4.8370    1.9200    0.3410 O   0  0  0  1  0  0
   -3.2280    3.2680    2.0870 O   0  0  0  1  0  0
   -0.9230   -1.9250   -0.8050 C   0  0  2  1  0  0
   -1.0190   -0.5190   -1.4380 C   0  0  1  1  0  0
    0.1420   -1.9610    0.3130 C   0  0  0  1  0  0
    1.3880   -1.2390   -0.0520 C   0  0  0  1  0  0
   -1.6050    0.4860   -0.5040 C   0  0  0  1  0  0
    1.3900   -0.3240   -1.1450 C   0  0  0  1  0  0
    2.5820   -1.4560    0.6830 C   0  0  0  1  0  0
    2.5860    0.3430   -1.5000 C   0  0  0  1  0  0
   -2.9870    0.7400   -0.5180 C   0  0  0  1  0  0
   -0.7750    1.1780    0.3960 C   0  0  0  1  0  0
    3.7720   -0.7800    0.3260 C   0  0  0  1  0  0
    3.7740    0.1180   -0.7670 C   0  0  0  1  0  0
   -1.3260    2.1260    1.2780 C   0  0  0  1  0  0
   -3.5410    1.6850    0.3620 C   0  0  0  1  0  0
   -2.7090    2.3790    1.2610 C   0  0  0  1  0  0
   -1.8920   -2.2430   -0.4130 H   0  0  0  1  0  0
   -1.6660   -0.5400   -2.3160 H   0  0  0  1  0  0
    0.3650   -2.9940    0.5910 H   0  0  0  1  0  0
   -0.2650   -1.4900    1.2100 H   0  0  0  1  0  0
    2.5920    1.0270   -2.3350 H   0  0  0  1  0  0
   -3.6290    0.2090   -1.2070 H   0  0  0  1  0  0
    0.2880    0.9860    0.4110 H   0  0  0  1  0  0
    4.6790   -0.9490    0.8880 H   0  0  0  1  0  0
   -0.6150   -3.7410   -1.4080 H   0  0  0  1  0  0
    1.7640   -2.6890    2.0280 H   0  0  0  1  0  0
    5.7080    0.5930   -0.6010 H   0  0  0  1  0  0
   -0.9290    3.4210    2.7210 H   0  0  0  1  0  0
   -5.3960    1.4360   -0.2810 H   0  0  0  1  0  0
   -4.1780    3.4320    2.0670 H   0  0  0  1  0  0
  1  9  1  0
  1 13  1  0
  2  8  1  0
  2 31  1  0
  3 14  1  0
  3 32  1  0
  4 19  1  0
  4 33  1  0
  5 20  1  0
  5 34  1  0
  6 21  1  0
  6 35  1  0
  7 22  1  0
  7 36  1  0
  8  9  1  0
  8 10  1  0
  8 23  1  0
  9 12  1  0
  9 24  1  0
 10 11  1  0
 10 25  1  0
 10 26  1  0
 11 13  2  0
 11 14  1  0
 12 16  2  0
 12 17  1  0
 13 15  1  0
 14 18  2  0
 15 19  2  0
 15 27  1  0
 16 21  1  0
 16 28  1  0
 17 20  2  0
 17 29  1  0
 18 19  1  0
 18 30  1  0
 20 22  1  0
 21 22  2  0
M  END
> <Name>
65084

> <AbsoluteEnergy>
31.3672

> <ConfNumber>
1

> <Ionization pH>
8.08_PPPPP

> <IonizationIndex>
1

> <NumberOfIonizations>
2

> <NumberOfStereoisomers>
1

> <NumberOfTautomers>
1

> <OBJECTID>
9223375069105029133

> <PUBCHEM_ATOM_DEF_STEREO_COUNT>
2

> <PUBCHEM_ATOM_UDEF_STEREO_COUNT>
0

> <PUBCHEM_BONDANNOTATIONS>
11  13  8
11  14  8
12  16  8
12  17  8
13  15  8
14  18  8
15  19  8
16  21  8
17  20  8
18  19  8
8  2  6
20  22  8
21  22  8
9  12  5

> <PUBCHEM_BOND_DEF_STEREO_COUNT>
0

> <PUBCHEM_BOND_UDEF_STEREO_COUNT>
0

> <PUBCHEM_CACTVS_COMPLEXITY>
380

> <PUBCHEM_CACTVS_HBOND_ACCEPTOR>
7

> <PUBCHEM_CACTVS_HBOND_DONOR>
6

> <PUBCHEM_CACTVS_ROTATABLE_BOND>
1

> <PUBCHEM_CACTVS_SUBSKEYS>
AAADccBwOAAAAAAAAAAAAAAAAAAAAAAAAAA0YIAAAAAAAACRQAAAGgAACAAADBSgmAIwBoAABgCAAiBCAAACCAAgIAAAiAAGiIgNNyKGMRqCeCGlwBULuAfA4PwOIAABCAAIQABAAAIQABCAAAAAAAAAAA==

> <PUBCHEM_CACTVS_TAUTO_COUNT>
99

> <PUBCHEM_CACTVS_TPSA>
131

> <PUBCHEM_COMPONENT_COUNT>
1

> <PUBCHEM_COMPOUND_CANONICALIZED>
1

> <PUBCHEM_COMPOUND_CID>
65084

> <PUBCHEM_COORDINATE_TYPE>
1
5
255

> <PUBCHEM_EXACT_MASS>
306.07395278

> <PUBCHEM_HEAVY_ATOM_COUNT>
22

> <PUBCHEM_ISOTOPIC_ATOM_COUNT>
0

> <PUBCHEM_IUPAC_CAS_NAME>
(2R,3S)-2-(3,4,5-trihydroxyphenyl)-3,4-dihydro-2H-1-benzopyran-3,5,7-triol

> <PUBCHEM_IUPAC_INCHI>
InChI=1S/C15H14O7/c16-7-3-9(17)8-5-12(20)15(22-13(8)4-7)6-1-10(18)14(21)11(19)2-6/h1-4,12,15-21H,5H2/t12-,15+/m0/s1

> <PUBCHEM_IUPAC_INCHIKEY>
XMOCLSLCDHWDHP-SWLSCSKDSA-N

> <PUBCHEM_IUPAC_NAME>
(2R,3S)-2-(3,4,5-trihydroxyphenyl)-3,4-dihydro-2H-chromene-3,5,7-triol

> <PUBCHEM_IUPAC_NAME_MARKUP>
(2<I>R</I>,3<I>S</I>)-2-(3,4,5-trihydroxyphenyl)-3,4-dihydro-2<I>H</I>-chromene-3,5,7-triol

> <PUBCHEM_IUPAC_OPENEYE_NAME>
(2R,3S)-2-(3,4,5-trihydroxyphenyl)chromane-3,5,7-triol

> <PUBCHEM_IUPAC_SYSTEMATIC_NAME>
(2R,3S)-2-[3,4,5-tris(oxidanyl)phenyl]-3,4-dihydro-2H-chromene-3,5,7-triol

> <PUBCHEM_IUPAC_TRADITIONAL_NAME>
(2R,3S)-2-(3,4,5-trihydroxyphenyl)chroman-3,5,7-triol

> <PUBCHEM_MOLECULAR_FORMULA>
C15H14O7

> <PUBCHEM_MOLECULAR_WEIGHT>
306.27

> <PUBCHEM_MONOISOTOPIC_WEIGHT>
306.07395278

> <PUBCHEM_OPENEYE_CAN_SMILES>
C1C(C(OC2=CC(=CC(=C21)O)O)C3=CC(=C(C(=C3)O)O)O)O

> <PUBCHEM_OPENEYE_ISO_SMILES>
C1[C@@H]([C@H](OC2=CC(=CC(=C21)O)O)C3=CC(=C(C(=C3)O)O)O)O

> <PUBCHEM_TOTAL_CHARGE>
0

> <PUBCHEM_XLOGP3>
0

> <RelativeEnergy>
0

> <StereoisomerIndex>
1

> <TautomerIndex>
1

> <LibDock Warning>
no hit found

> <ErrorText>
LibDock failed

$$$$
65084
  SciTegic09112317153D

 35 37  0  0  0  0            999 V2000
    0.5820    0.3580   -1.6500 O   0  0  0  1  0  0
   -0.3050   -2.3030   -2.4450 O   0  0  0  1  0  0
    2.0460   -2.7970    1.6910 O   0  0  0  1  0  0
    4.9500    0.6830    0.2210 O   0  0  0  1  0  0
   -0.9850    2.3550    2.6330 O   0  5  0  1  0  0
   -4.8920    2.0070   -0.0650 O   0  0  0  1  0  0
   -3.6460    2.9010    2.1940 O   0  0  0  1  0  0
   -0.8430   -1.6100   -1.3330 C   0  0  2  1  0  0
   -0.7800   -0.0900   -1.6120 C   0  0  1  1  0  0
   -0.0430   -1.9750   -0.0630 C   0  0  0  1  0  0
    1.2630   -1.2710    0.0200 C   0  0  0  1  0  0
   -1.5410    0.7040   -0.6020 C   0  0  0  1  0  0
    1.5120   -0.1260   -0.7950 C   0  0  0  1  0  0
    2.2680   -1.7310    0.9100 C   0  0  0  1  0  0
    2.7650    0.5240   -0.7250 C   0  0  0  1  0  0
   -2.8980    0.9940   -0.8110 C   0  0  0  1  0  0
   -0.8970    1.1640    0.5600 C   0  0  0  1  0  0
    3.5160   -1.0670    0.9790 C   0  0  0  1  0  0
    3.7650    0.0570    0.1590 C   0  0  0  1  0  0
   -1.6140    1.9110    1.5100 C   0  0  0  1  0  0
   -3.6180    1.7400    0.1380 C   0  0  0  1  0  0
   -2.9740    2.2000    1.3020 C   0  0  0  1  0  0
   -1.8770   -1.9450   -1.2370 H   0  0  0  1  0  0
   -1.2250    0.1370   -2.5830 H   0  0  0  1  0  0
    0.1000   -3.0570   -0.0040 H   0  0  0  1  0  0
   -0.6250   -1.7000    0.8170 H   0  0  0  1  0  0
    2.9590    1.3840   -1.3510 H   0  0  0  1  0  0
   -3.3950    0.6420   -1.7040 H   0  0  0  1  0  0
    0.1480    0.9430    0.7240 H   0  0  0  1  0  0
    4.2790   -1.4210    1.6550 H   0  0  0  1  0  0
   -0.9170   -2.1730   -3.1860 H   0  0  0  1  0  0
    2.7420   -3.0970    2.2930 H   0  0  0  1  0  0
    5.1090    1.4490   -0.3450 H   0  0  0  1  0  0
   -5.3210    1.6830   -0.8680 H   0  0  0  1  0  0
   -3.1920    3.2110    2.9900 H   0  0  0  1  0  0
  1  9  1  0
  1 13  1  0
  2  8  1  0
  2 31  1  0
  3 14  1  0
  3 32  1  0
  4 19  1  0
  4 33  1  0
  5 20  1  0
  6 21  1  0
  6 34  1  0
  7 22  1  0
  7 35  1  0
  8  9  1  0
  8 10  1  0
  8 23  1  0
  9 12  1  0
  9 24  1  0
 10 11  1  0
 10 25  1  0
 10 26  1  0
 11 13  2  0
 11 14  1  0
 12 16  2  0
 12 17  1  0
 13 15  1  0
 14 18  2  0
 15 19  2  0
 15 27  1  0
 16 21  1  0
 16 28  1  0
 17 20  2  0
 17 29  1  0
 18 19  1  0
 18 30  1  0
 20 22  1  0
 21 22  2  0
M  CHG  1   5  -1
M  END
> <Name>
65084

> <AbsoluteEnergy>
29.4037

> <ConfNumber>
1

> <Ionization pH>
8.08_DPPPP

> <IonizationIndex>
2

> <NumberOfIonizations>
2

> <NumberOfStereoisomers>
1

> <NumberOfTautomers>
1

> <OBJECTID>
9223375073399996429

> <PUBCHEM_ATOM_DEF_STEREO_COUNT>
2

> <PUBCHEM_ATOM_UDEF_STEREO_COUNT>
0

> <PUBCHEM_BONDANNOTATIONS>
11  13  8
11  14  8
12  16  8
12  17  8
13  15  8
14  18  8
15  19  8
16  21  8
17  20  8
18  19  8
8  2  6
20  22  8
21  22  8
9  12  5

> <PUBCHEM_BOND_DEF_STEREO_COUNT>
0

> <PUBCHEM_BOND_UDEF_STEREO_COUNT>
0

> <PUBCHEM_CACTVS_COMPLEXITY>
380

> <PUBCHEM_CACTVS_HBOND_ACCEPTOR>
7

> <PUBCHEM_CACTVS_HBOND_DONOR>
6

> <PUBCHEM_CACTVS_ROTATABLE_BOND>
1

> <PUBCHEM_CACTVS_SUBSKEYS>
AAADccBwOAAAAAAAAAAAAAAAAAAAAAAAAAA0YIAAAAAAAACRQAAAGgAACAAADBSgmAIwBoAABgCAAiBCAAACCAAgIAAAiAAGiIgNNyKGMRqCeCGlwBULuAfA4PwOIAABCAAIQABAAAIQABCAAAAAAAAAAA==

> <PUBCHEM_CACTVS_TAUTO_COUNT>
99

> <PUBCHEM_CACTVS_TPSA>
131

> <PUBCHEM_COMPONENT_COUNT>
1

> <PUBCHEM_COMPOUND_CANONICALIZED>
1

> <PUBCHEM_COMPOUND_CID>
65084

> <PUBCHEM_COORDINATE_TYPE>
1
5
255

> <PUBCHEM_EXACT_MASS>
306.07395278

> <PUBCHEM_HEAVY_ATOM_COUNT>
22

> <PUBCHEM_ISOTOPIC_ATOM_COUNT>
0

> <PUBCHEM_IUPAC_CAS_NAME>
(2R,3S)-2-(3,4,5-trihydroxyphenyl)-3,4-dihydro-2H-1-benzopyran-3,5,7-triol

> <PUBCHEM_IUPAC_INCHI>
InChI=1S/C15H14O7/c16-7-3-9(17)8-5-12(20)15(22-13(8)4-7)6-1-10(18)14(21)11(19)2-6/h1-4,12,15-21H,5H2/t12-,15+/m0/s1

> <PUBCHEM_IUPAC_INCHIKEY>
XMOCLSLCDHWDHP-SWLSCSKDSA-N

> <PUBCHEM_IUPAC_NAME>
(2R,3S)-2-(3,4,5-trihydroxyphenyl)-3,4-dihydro-2H-chromene-3,5,7-triol

> <PUBCHEM_IUPAC_NAME_MARKUP>
(2<I>R</I>,3<I>S</I>)-2-(3,4,5-trihydroxyphenyl)-3,4-dihydro-2<I>H</I>-chromene-3,5,7-triol

> <PUBCHEM_IUPAC_OPENEYE_NAME>
(2R,3S)-2-(3,4,5-trihydroxyphenyl)chromane-3,5,7-triol

> <PUBCHEM_IUPAC_SYSTEMATIC_NAME>
(2R,3S)-2-[3,4,5-tris(oxidanyl)phenyl]-3,4-dihydro-2H-chromene-3,5,7-triol

> <PUBCHEM_IUPAC_TRADITIONAL_NAME>
(2R,3S)-2-(3,4,5-trihydroxyphenyl)chroman-3,5,7-triol

> <PUBCHEM_MOLECULAR_FORMULA>
C15H14O7

> <PUBCHEM_MOLECULAR_WEIGHT>
306.27

> <PUBCHEM_MONOISOTOPIC_WEIGHT>
306.07395278

> <PUBCHEM_OPENEYE_CAN_SMILES>
C1C(C(OC2=CC(=CC(=C21)O)O)C3=CC(=C(C(=C3)O)O)O)O

> <PUBCHEM_OPENEYE_ISO_SMILES>
C1[C@@H]([C@H](OC2=CC(=CC(=C21)O)O)C3=CC(=C(C(=C3)O)O)O)O

> <PUBCHEM_TOTAL_CHARGE>
0

> <PUBCHEM_XLOGP3>
0

> <RelativeEnergy>
0

> <StereoisomerIndex>
1

> <TautomerIndex>
1

> <LibDock Warning>
no hit found

> <ErrorText>
LibDock failed

$$$$
68077
  SciTegic09112317153D

 47 49  0  0  0  0            999 V2000
    0.5900    0.5310   -0.1290 O   0  0  0  1  0  0
   -1.2480   -3.4120    1.9070 O   0  0  0  1  0  0
   -1.9540    1.3270   -0.8340 O   0  0  0  1  0  0
   -3.7710   -2.5940    1.1950 O   0  0  0  1  0  0
   -4.1290   -0.2310   -0.1740 O   0  0  0  1  0  0
    1.4380   -2.8620    1.8590 O   0  0  0  1  0  0
    6.0610    3.6470   -1.3220 O   0  0  0  1  0  0
   -0.2900   -1.4550    0.9000 C   0  0  0  1  0  0
   -0.4740   -0.2350    0.1940 C   0  0  0  1  0  0
   -1.4080   -2.2590    1.2420 C   0  0  0  1  0  0
   -1.7780    0.1780   -0.1680 C   0  0  0  1  0  0
   -2.7110   -1.8390    0.8750 C   0  0  0  1  0  0
   -2.8940   -0.6240    0.1720 C   0  0  0  1  0  0
    1.8640    0.2100    0.1810 C   0  0  0  1  0  0
    1.0950   -1.8630    1.2660 C   0  0  0  1  0  0
    2.1590   -0.9280    0.8490 C   0  0  0  1  0  0
    2.9800    1.1230   -0.2190 C   0  0  0  1  0  0
    2.7030    2.3010   -0.9340 C   0  0  0  1  0  0
    4.3060    0.8050    0.1220 C   0  0  0  1  0  0
    3.7510    3.1580   -1.3080 C   0  0  0  1  0  0
    5.3530    1.6630   -0.2550 C   0  0  0  1  0  0
    5.0800    2.8420   -0.9700 C   0  0  0  1  0  0
   -2.2810   -4.3820    1.8190 C   0  0  0  1  0  0
   -2.9440    2.2270   -0.3600 C   0  0  0  1  0  0
   -4.8880   -1.9540    1.7930 C   0  0  0  1  0  0
   -4.7550   -0.8860   -1.2680 C   0  0  0  1  0  0
    5.7370    4.8090   -2.0700 C   0  0  0  1  0  0
    3.1840   -1.1740    1.0890 H   0  0  0  1  0  0
    1.6850    2.5550   -1.1990 H   0  0  0  1  0  0
    4.5280   -0.1000    0.6710 H   0  0  0  1  0  0
    3.5330    4.0630   -1.8570 H   0  0  0  1  0  0
    6.3710    1.4130    0.0080 H   0  0  0  1  0  0
   -2.0000   -5.4170    2.0230 H   0  0  0  1  0  0
   -2.7030   -4.3440    0.8150 H   0  0  0  1  0  0
   -3.0680   -4.1060    2.5220 H   0  0  0  1  0  0
   -2.7320    3.2890   -0.4720 H   0  0  0  1  0  0
   -3.1060    2.0290    0.7000 H   0  0  0  1  0  0
   -3.8770    2.0150   -0.8850 H   0  0  0  1  0  0
   -5.6270   -2.6000    2.2670 H   0  0  0  1  0  0
   -5.4000   -1.3720    1.0260 H   0  0  0  1  0  0
   -4.5190   -1.2590    2.5490 H   0  0  0  1  0  0
   -5.7550   -0.5410   -1.5360 H   0  0  0  1  0  0
   -4.8210   -1.9490   -1.0350 H   0  0  0  1  0  0
   -4.1180   -0.7730   -2.1430 H   0  0  0  1  0  0
    6.6560    5.3680   -2.2500 H   0  0  0  1  0  0
    5.1790    4.4990   -2.9540 H   0  0  0  1  0  0
    5.0800    5.4330   -1.4640 H   0  0  0  1  0  0
  1  9  1  0
  1 14  1  0
  2 10  1  0
  2 23  1  0
  3 11  1  0
  3 24  1  0
  4 12  1  0
  4 25  1  0
  5 13  1  0
  5 26  1  0
  6 15  2  0
  7 22  1  0
  7 27  1  0
  8  9  2  0
  8 10  1  0
  8 15  1  0
  9 11  1  0
 10 12  2  0
 11 13  2  0
 12 13  1  0
 14 16  2  0
 14 17  1  0
 15 16  1  0
 16 28  1  0
 17 18  2  0
 17 19  1  0
 18 20  1  0
 18 29  1  0
 19 21  2  0
 19 30  1  0
 20 22  2  0
 20 31  1  0
 21 22  1  0
 21 32  1  0
 23 33  1  0
 23 34  1  0
 23 35  1  0
 24 36  1  0
 24 37  1  0
 24 38  1  0
 25 39  1  0
 25 40  1  0
 25 41  1  0
 26 42  1  0
 26 43  1  0
 26 44  1  0
 27 45  1  0
 27 46  1  0
 27 47  1  0
M  END
> <Name>
68077

> <AbsoluteEnergy>
82.9273

> <ConfNumber>
1

> <IonizationIndex>
1

> <NumberOfIonizations>
1

> <NumberOfStereoisomers>
1

> <NumberOfTautomers>
1

> <OBJECTID>
9223375077694963725

> <PUBCHEM_ATOM_DEF_STEREO_COUNT>
0

> <PUBCHEM_ATOM_UDEF_STEREO_COUNT>
0

> <PUBCHEM_BONDANNOTATIONS>
1  14  8
1  9  8
10  12  8
11  13  8
12  13  8
14  16  8
15  16  8
17  18  8
17  19  8
18  20  8
19  21  8
20  22  8
21  22  8
8  10  8
8  15  8
8  9  8
9  11  8

> <PUBCHEM_BOND_DEF_STEREO_COUNT>
0

> <PUBCHEM_BOND_UDEF_STEREO_COUNT>
0

> <PUBCHEM_CACTVS_COMPLEXITY>
540

> <PUBCHEM_CACTVS_HBOND_ACCEPTOR>
7

> <PUBCHEM_CACTVS_HBOND_DONOR>
0

> <PUBCHEM_CACTVS_ROTATABLE_BOND>
6

> <PUBCHEM_CACTVS_SUBSKEYS>
AAADceB4OAAAAAAAAAAAAAAAAAAAAAAAAAAwYIAAAAAAAACBQAAAGgAAAAAADASAmAIyBoAABACIAqBSAAACCAAkIAAIiAEGiMgNJzaENRqCOWKl4BUKqQfK7LzOIQABCAAIQABCAAIQABCAAAAAAAAAAA==

> <PUBCHEM_CACTVS_TAUTO_COUNT>
-1

> <PUBCHEM_CACTVS_TPSA>
72.4

> <PUBCHEM_COMPONENT_COUNT>
1

> <PUBCHEM_COMPOUND_CANONICALIZED>
1

> <PUBCHEM_COMPOUND_CID>
68077

> <PUBCHEM_COORDINATE_TYPE>
1
5
255

> <PUBCHEM_EXACT_MASS>
372.12090297

> <PUBCHEM_HEAVY_ATOM_COUNT>
27

> <PUBCHEM_ISOTOPIC_ATOM_COUNT>
0

> <PUBCHEM_IUPAC_CAS_NAME>
5,6,7,8-tetramethoxy-2-(4-methoxyphenyl)-1-benzopyran-4-one

> <PUBCHEM_IUPAC_INCHI>
InChI=1S/C20H20O7/c1-22-12-8-6-11(7-9-12)14-10-13(21)15-16(23-2)18(24-3)20(26-5)19(25-4)17(15)27-14/h6-10H,1-5H3

> <PUBCHEM_IUPAC_INCHIKEY>
ULSUXBXHSYSGDT-UHFFFAOYSA-N

> <PUBCHEM_IUPAC_NAME>
5,6,7,8-tetramethoxy-2-(4-methoxyphenyl)chromen-4-one

> <PUBCHEM_IUPAC_NAME_MARKUP>
5,6,7,8-tetramethoxy-2-(4-methoxyphenyl)chromen-4-one

> <PUBCHEM_IUPAC_OPENEYE_NAME>
5,6,7,8-tetramethoxy-2-(4-methoxyphenyl)chromen-4-one

> <PUBCHEM_IUPAC_SYSTEMATIC_NAME>
5,6,7,8-tetramethoxy-2-(4-methoxyphenyl)chromen-4-one

> <PUBCHEM_IUPAC_TRADITIONAL_NAME>
5,6,7,8-tetramethoxy-2-(4-methoxyphenyl)chromone

> <PUBCHEM_MOLECULAR_FORMULA>
C20H20O7

> <PUBCHEM_MOLECULAR_WEIGHT>
372.4

> <PUBCHEM_MONOISOTOPIC_WEIGHT>
372.12090297

> <PUBCHEM_OPENEYE_CAN_SMILES>
COC1=CC=C(C=C1)C2=CC(=O)C3=C(O2)C(=C(C(=C3OC)OC)OC)OC

> <PUBCHEM_OPENEYE_ISO_SMILES>
COC1=CC=C(C=C1)C2=CC(=O)C3=C(O2)C(=C(C(=C3OC)OC)OC)OC

> <PUBCHEM_TOTAL_CHARGE>
0

> <PUBCHEM_XLOGP3_AA>
3

> <RelativeEnergy>
0

> <StereoisomerIndex>
1

> <TautomerIndex>
1

> <LibDock Warning>
no hit found

> <ErrorText>
LibDock failed

$$$$
72276
  SciTegic09112317153D

 35 37  0  0  0  0            999 V2000
    0.6730   -0.4130   -1.6350 O   0  0  0  1  0  0
   -1.6640   -2.8220   -0.1180 O   0  0  0  1  0  0
    2.4610   -1.4910    2.7130 O   0  0  0  1  0  0
    4.8720    1.3540   -0.2520 O   0  0  0  1  0  0
   -2.6600    3.4300   -1.5250 O   0  0  0  1  0  0
   -3.9480    2.9800    0.8460 O   0  0  0  1  0  0
   -0.4220   -2.2240   -0.4410 C   0  0  1  1  0  0
   -0.6120   -0.9860   -1.3490 C   0  0  1  1  0  0
    0.3350   -1.8530    0.8490 C   0  0  0  1  0  0
    1.5230   -1.0040    0.5640 C   0  0  0  1  0  0
    1.6320   -0.3240   -0.6860 C   0  0  0  1  0  0
   -1.4990    0.0680   -0.7660 C   0  0  0  1  0  0
    2.5530   -0.8650    1.5300 C   0  0  0  1  0  0
    2.7750    0.4660   -0.9570 C   0  0  0  1  0  0
   -1.6700    1.2920   -1.4360 C   0  0  0  1  0  0
   -2.1590   -0.1630    0.4510 C   0  0  0  1  0  0
    3.6840   -0.0650    1.2520 C   0  0  0  1  0  0
    3.7950    0.5990    0.0100 C   0  0  0  1  0  0
   -2.5020    2.2850   -0.8920 C   0  0  0  1  0  0
   -2.9920    0.8300    0.9980 C   0  0  0  1  0  0
   -3.1660    2.0540    0.3280 C   0  0  0  1  0  0
    0.1460   -2.9750   -0.9890 H   0  0  0  1  0  0
   -1.0500   -1.2840   -2.3000 H   0  0  0  1  0  0
    0.6410   -2.7620    1.3680 H   0  0  0  1  0  0
   -0.3130   -1.3030    1.5320 H   0  0  0  1  0  0
    2.8630    0.9720   -1.9070 H   0  0  0  1  0  0
   -1.1630    1.4730   -2.3730 H   0  0  0  1  0  0
   -2.0300   -1.1010    0.9730 H   0  0  0  1  0  0
    4.4650    0.0410    1.9920 H   0  0  0  1  0  0
   -3.4990    0.6490    1.9350 H   0  0  0  1  0  0
   -1.4720   -3.6330    0.3780 H   0  0  0  1  0  0
    1.6490   -1.9660    2.9340 H   0  0  0  1  0  0
    5.5660    1.4380    0.4160 H   0  0  0  1  0  0
   -3.2340    4.1060   -1.1440 H   0  0  0  1  0  0
   -4.3950    2.8060    1.6850 H   0  0  0  1  0  0
  1  8  1  0
  1 11  1  0
  2  7  1  0
  2 31  1  0
  3 13  1  0
  3 32  1  0
  4 18  1  0
  4 33  1  0
  5 19  1  0
  5 34  1  0
  6 21  1  0
  6 35  1  0
  7  8  1  0
  7  9  1  0
  7 22  1  0
  8 12  1  0
  8 23  1  0
  9 10  1  0
  9 24  1  0
  9 25  1  0
 10 11  2  0
 10 13  1  0
 11 14  1  0
 12 15  2  0
 12 16  1  0
 13 17  2  0
 14 18  2  0
 14 26  1  0
 15 19  1  0
 15 27  1  0
 16 20  2  0
 16 28  1  0
 17 18  1  0
 17 29  1  0
 19 21  2  0
 20 21  1  0
 20 30  1  0
M  END
> <Name>
72276

> <AbsoluteEnergy>
31.4772

> <ConfNumber>
1

> <Ionization pH>
7.5

> <IonizationIndex>
1

> <NumberOfIonizations>
1

> <NumberOfStereoisomers>
1

> <NumberOfTautomers>
1

> <OBJECTID>
9223375081989931021

> <PUBCHEM_ATOM_DEF_STEREO_COUNT>
2

> <PUBCHEM_ATOM_UDEF_STEREO_COUNT>
0

> <PUBCHEM_BONDANNOTATIONS>
10  11  8
10  13  8
11  14  8
12  15  8
12  16  8
13  17  8
14  18  8
15  19  8
16  20  8
17  18  8
19  21  8
7  2  5
20  21  8
8  12  5

> <PUBCHEM_BOND_DEF_STEREO_COUNT>
0

> <PUBCHEM_BOND_UDEF_STEREO_COUNT>
0

> <PUBCHEM_CACTVS_COMPLEXITY>
364

> <PUBCHEM_CACTVS_HBOND_ACCEPTOR>
6

> <PUBCHEM_CACTVS_HBOND_DONOR>
5

> <PUBCHEM_CACTVS_ROTATABLE_BOND>
1

> <PUBCHEM_CACTVS_SUBSKEYS>
AAADccBwOAAAAAAAAAAAAAAAAAAAAAAAAAA0YIAAAAAAAACRQAAAGgAACAAADBSgmAIwBoAABgCAAiBCAAACCAAgIAAIiAAGiIgNNyKGMRqCeCGlwBULuAfA4PwOIAABCAAIQABAAAIQABCAAAAAAAAAAA==

> <PUBCHEM_CACTVS_TAUTO_COUNT>
-1

> <PUBCHEM_CACTVS_TPSA>
110

> <PUBCHEM_COMPONENT_COUNT>
1

> <PUBCHEM_COMPOUND_CANONICALIZED>
1

> <PUBCHEM_COMPOUND_CID>
72276

> <PUBCHEM_COORDINATE_TYPE>
1
5
255

> <PUBCHEM_EXACT_MASS>
290.07903816

> <PUBCHEM_HEAVY_ATOM_COUNT>
21

> <PUBCHEM_ISOTOPIC_ATOM_COUNT>
0

> <PUBCHEM_IUPAC_CAS_NAME>
(2R,3R)-2-(3,4-dihydroxyphenyl)-3,4-dihydro-2H-1-benzopyran-3,5,7-triol

> <PUBCHEM_IUPAC_INCHI>
InChI=1S/C15H14O6/c16-8-4-11(18)9-6-13(20)15(21-14(9)5-8)7-1-2-10(17)12(19)3-7/h1-5,13,15-20H,6H2/t13-,15-/m1/s1

> <PUBCHEM_IUPAC_INCHIKEY>
PFTAWBLQPZVEMU-UKRRQHHQSA-N

> <PUBCHEM_IUPAC_NAME>
(2R,3R)-2-(3,4-dihydroxyphenyl)-3,4-dihydro-2H-chromene-3,5,7-triol

> <PUBCHEM_IUPAC_NAME_MARKUP>
(2<I>R</I>,3<I>R</I>)-2-(3,4-dihydroxyphenyl)-3,4-dihydro-2<I>H</I>-chromene-3,5,7-triol

> <PUBCHEM_IUPAC_OPENEYE_NAME>
(2R,3R)-2-(3,4-dihydroxyphenyl)chromane-3,5,7-triol

> <PUBCHEM_IUPAC_SYSTEMATIC_NAME>
(2R,3R)-2-[3,4-bis(oxidanyl)phenyl]-3,4-dihydro-2H-chromene-3,5,7-triol

> <PUBCHEM_IUPAC_TRADITIONAL_NAME>
(2R,3R)-2-(3,4-dihydroxyphenyl)chroman-3,5,7-triol

> <PUBCHEM_MOLECULAR_FORMULA>
C15H14O6

> <PUBCHEM_MOLECULAR_WEIGHT>
290.27

> <PUBCHEM_MONOISOTOPIC_WEIGHT>
290.07903816

> <PUBCHEM_OPENEYE_CAN_SMILES>
C1C(C(OC2=CC(=CC(=C21)O)O)C3=CC(=C(C=C3)O)O)O

> <PUBCHEM_OPENEYE_ISO_SMILES>
C1[C@H]([C@H](OC2=CC(=CC(=C21)O)O)C3=CC(=C(C=C3)O)O)O

> <PUBCHEM_TOTAL_CHARGE>
0

> <PUBCHEM_XLOGP3>
0.4

> <RelativeEnergy>
0

> <StereoisomerIndex>
1

> <TautomerIndex>
1

> <LibDock Warning>
no hit found

> <ErrorText>
LibDock failed

$$$$
72277
  SciTegic09112317153D

 36 38  0  0  0  0            999 V2000
    1.2720    0.8020   -1.3310 O   0  0  0  1  0  0
   -1.1390   -1.7690   -2.4030 O   0  0  0  1  0  0
    1.9410   -2.9870    1.5760 O   0  0  0  1  0  0
    4.7610    0.8370    1.9060 O   0  0  0  1  0  0
   -2.3330    3.9840    0.3410 O   0  0  0  1  0  0
   -3.9370   -0.4240    0.9160 O   0  0  0  1  0  0
   -4.1480    2.2500    1.4170 O   0  0  0  1  0  0
    0.0800   -1.2320   -1.9240 C   0  0  1  1  0  0
    0.0190    0.3110   -1.8300 C   0  0  1  1  0  0
    0.4300   -1.8520   -0.5580 C   0  0  0  1  0  0
    1.5630   -1.1430    0.0950 C   0  0  0  1  0  0
   -1.0880    0.8260   -0.9670 C   0  0  0  1  0  0
    1.9330    0.1640   -0.3370 C   0  0  0  1  0  0
    2.2800   -1.7620    1.1520 C   0  0  0  1  0  0
    3.0220    0.8240    0.2760 C   0  0  0  1  0  0
   -2.0220   -0.0640   -0.4120 C   0  0  0  1  0  0
   -1.1950    2.2040   -0.7100 C   0  0  0  1  0  0
    3.3630   -1.0890    1.7650 C   0  0  0  1  0  0
    3.7350    0.2020    1.3260 C   0  0  0  1  0  0
   -2.2360    2.6910    0.1020 C   0  0  0  1  0  0
   -3.0630    0.4170    0.3990 C   0  0  0  1  0  0
   -3.1710    1.7970    0.6570 C   0  0  0  1  0  0
    0.8450   -1.5070   -2.6500 H   0  0  0  1  0  0
   -0.1220    0.7380   -2.8240 H   0  0  0  1  0  0
    0.6740   -2.9090   -0.6890 H   0  0  0  1  0  0
   -0.4260   -1.8100    0.1160 H   0  0  0  1  0  0
    3.3100    1.8100   -0.0600 H   0  0  0  1  0  0
   -1.9440   -1.1260   -0.6100 H   0  0  0  1  0  0
   -0.4810    2.8930   -1.1340 H   0  0  0  1  0  0
    3.9060   -1.5620    2.5690 H   0  0  0  1  0  0
   -1.0050   -2.7230   -2.5180 H   0  0  0  1  0  0
    1.1460   -3.4080    1.2200 H   0  0  0  1  0  0
    5.2430    0.4020    2.6220 H   0  0  0  1  0  0
   -3.0500    4.3090    0.8990 H   0  0  0  1  0  0
   -3.8500   -1.3690    0.7290 H   0  0  0  1  0  0
   -4.7830    1.6280    1.7920 H   0  0  0  1  0  0
  1  9  1  0
  1 13  1  0
  2  8  1  0
  2 31  1  0
  3 14  1  0
  3 32  1  0
  4 19  1  0
  4 33  1  0
  5 20  1  0
  5 34  1  0
  6 21  1  0
  6 35  1  0
  7 22  1  0
  7 36  1  0
  8  9  1  0
  8 10  1  0
  8 23  1  0
  9 12  1  0
  9 24  1  0
 10 11  1  0
 10 25  1  0
 10 26  1  0
 11 13  2  0
 11 14  1  0
 12 16  2  0
 12 17  1  0
 13 15  1  0
 14 18  2  0
 15 19  2  0
 15 27  1  0
 16 21  1  0
 16 28  1  0
 17 20  2  0
 17 29  1  0
 18 19  1  0
 18 30  1  0
 20 22  1  0
 21 22  2  0
M  END
> <Name>
72277

> <AbsoluteEnergy>
32.4308

> <ConfNumber>
1

> <Ionization pH>
8.08_PPPPP

> <IonizationIndex>
1

> <NumberOfIonizations>
2

> <NumberOfStereoisomers>
1

> <NumberOfTautomers>
1

> <OBJECTID>
9223375086284898317

> <PUBCHEM_ATOM_DEF_STEREO_COUNT>
2

> <PUBCHEM_ATOM_UDEF_STEREO_COUNT>
0

> <PUBCHEM_BONDANNOTATIONS>
11  13  8
11  14  8
12  16  8
12  17  8
13  15  8
14  18  8
15  19  8
16  21  8
17  20  8
18  19  8
8  2  5
20  22  8
21  22  8
9  12  5

> <PUBCHEM_BOND_DEF_STEREO_COUNT>
0

> <PUBCHEM_BOND_UDEF_STEREO_COUNT>
0

> <PUBCHEM_CACTVS_COMPLEXITY>
380

> <PUBCHEM_CACTVS_HBOND_ACCEPTOR>
7

> <PUBCHEM_CACTVS_HBOND_DONOR>
6

> <PUBCHEM_CACTVS_ROTATABLE_BOND>
1

> <PUBCHEM_CACTVS_SUBSKEYS>
AAADccBwOAAAAAAAAAAAAAAAAAAAAAAAAAA0YIAAAAAAAACRQAAAGgAACAAADBSgmAIwBoAABgCAAiBCAAACCAAgIAAAiAAGiIgNNyKGMRqCeCGlwBULuAfA4PwOIAABCAAIQABAAAIQABCAAAAAAAAAAA==

> <PUBCHEM_CACTVS_TAUTO_COUNT>
-1

> <PUBCHEM_CACTVS_TPSA>
131

> <PUBCHEM_COMPONENT_COUNT>
1

> <PUBCHEM_COMPOUND_CANONICALIZED>
1

> <PUBCHEM_COMPOUND_CID>
72277

> <PUBCHEM_COORDINATE_TYPE>
1
5
255

> <PUBCHEM_EXACT_MASS>
306.07395278

> <PUBCHEM_HEAVY_ATOM_COUNT>
22

> <PUBCHEM_ISOTOPIC_ATOM_COUNT>
0

> <PUBCHEM_IUPAC_CAS_NAME>
(2R,3R)-2-(3,4,5-trihydroxyphenyl)-3,4-dihydro-2H-1-benzopyran-3,5,7-triol

> <PUBCHEM_IUPAC_INCHI>
InChI=1S/C15H14O7/c16-7-3-9(17)8-5-12(20)15(22-13(8)4-7)6-1-10(18)14(21)11(19)2-6/h1-4,12,15-21H,5H2/t12-,15-/m1/s1

> <PUBCHEM_IUPAC_INCHIKEY>
XMOCLSLCDHWDHP-IUODEOHRSA-N

> <PUBCHEM_IUPAC_NAME>
(2R,3R)-2-(3,4,5-trihydroxyphenyl)-3,4-dihydro-2H-chromene-3,5,7-triol

> <PUBCHEM_IUPAC_NAME_MARKUP>
(2<I>R</I>,3<I>R</I>)-2-(3,4,5-trihydroxyphenyl)-3,4-dihydro-2<I>H</I>-chromene-3,5,7-triol

> <PUBCHEM_IUPAC_OPENEYE_NAME>
(2R,3R)-2-(3,4,5-trihydroxyphenyl)chromane-3,5,7-triol

> <PUBCHEM_IUPAC_SYSTEMATIC_NAME>
(2R,3R)-2-[3,4,5-tris(oxidanyl)phenyl]-3,4-dihydro-2H-chromene-3,5,7-triol

> <PUBCHEM_IUPAC_TRADITIONAL_NAME>
(2R,3R)-2-(3,4,5-trihydroxyphenyl)chroman-3,5,7-triol

> <PUBCHEM_MOLECULAR_FORMULA>
C15H14O7

> <PUBCHEM_MOLECULAR_WEIGHT>
306.27

> <PUBCHEM_MONOISOTOPIC_WEIGHT>
306.07395278

> <PUBCHEM_OPENEYE_CAN_SMILES>
C1C(C(OC2=CC(=CC(=C21)O)O)C3=CC(=C(C(=C3)O)O)O)O

> <PUBCHEM_OPENEYE_ISO_SMILES>
C1[C@H]([C@H](OC2=CC(=CC(=C21)O)O)C3=CC(=C(C(=C3)O)O)O)O

> <PUBCHEM_TOTAL_CHARGE>
0

> <PUBCHEM_XLOGP3>
0

> <RelativeEnergy>
0

> <StereoisomerIndex>
1

> <TautomerIndex>
1

> <LibDock Warning>
no hit found

> <ErrorText>
LibDock failed

$$$$
72277
  SciTegic09112317153D

 35 37  0  0  0  0            999 V2000
    0.5520   -0.6350   -1.5610 O   0  0  0  1  0  0
   -1.8200   -2.6560    0.4050 O   0  0  0  1  0  0
    2.5080   -1.1540    2.8170 O   0  0  0  1  0  0
    4.9010    1.0760   -0.6460 O   0  0  0  1  0  0
   -3.4870    1.1760    2.2450 O   0  5  0  1  0  0
   -2.5780    3.3620   -1.8870 O   0  0  0  1  0  0
   -3.7610    3.3490    0.5760 O   0  0  0  1  0  0
   -0.5680   -2.1840   -0.0590 C   0  0  1  1  0  0
   -0.7410   -1.0850   -1.1340 C   0  0  1  1  0  0
    0.2750   -1.6670    1.1240 C   0  0  0  1  0  0
    1.4850   -0.9410    0.6630 C   0  0  0  1  0  0
   -1.5440    0.0920   -0.6780 C   0  0  0  1  0  0
    1.5630   -0.4600   -0.6780 C   0  0  0  1  0  0
    2.5690   -0.7190    1.5510 C   0  0  0  1  0  0
    2.7270    0.2140   -1.1160 C   0  0  0  1  0  0
   -1.6910    1.2100   -1.5170 C   0  0  0  1  0  0
   -2.1510    0.0840    0.5890 C   0  0  0  1  0  0
    3.7240   -0.0320    1.1070 C   0  0  0  1  0  0
    3.8040    0.4310   -0.2260 C   0  0  0  1  0  0
   -2.9030    1.1900    1.0160 C   0  0  0  1  0  0
   -2.4450    2.3180   -1.0940 C   0  0  0  1  0  0
   -3.0530    2.3100    0.1750 C   0  0  0  1  0  0
   -0.0650   -3.0390   -0.5110 H   0  0  0  1  0  0
   -1.2450   -1.4970   -2.0090 H   0  0  0  1  0  0
    0.5600   -2.5070    1.7610 H   0  0  0  1  0  0
   -0.3090   -0.9870    1.7460 H   0  0  0  1  0  0
    2.7920    0.5680   -2.1340 H   0  0  0  1  0  0
   -1.2240    1.2210   -2.4920 H   0  0  0  1  0  0
   -2.0390   -0.7750    1.2360 H   0  0  0  1  0  0
    4.5460    0.1360    1.7860 H   0  0  0  1  0  0
   -2.2700   -3.0640   -0.3510 H   0  0  0  1  0  0
    3.2530   -0.9930    3.4110 H   0  0  0  1  0  0
    4.9440    1.3900   -1.5600 H   0  0  0  1  0  0
   -2.1540    3.3550   -2.7560 H   0  0  0  1  0  0
   -4.1730    3.3300    1.4480 H   0  0  0  1  0  0
  1  9  1  0
  1 13  1  0
  2  8  1  0
  2 31  1  0
  3 14  1  0
  3 32  1  0
  4 19  1  0
  4 33  1  0
  5 20  1  0
  6 21  1  0
  6 34  1  0
  7 22  1  0
  7 35  1  0
  8  9  1  0
  8 10  1  0
  8 23  1  0
  9 12  1  0
  9 24  1  0
 10 11  1  0
 10 25  1  0
 10 26  1  0
 11 13  2  0
 11 14  1  0
 12 16  2  0
 12 17  1  0
 13 15  1  0
 14 18  2  0
 15 19  2  0
 15 27  1  0
 16 21  1  0
 16 28  1  0
 17 20  2  0
 17 29  1  0
 18 19  1  0
 18 30  1  0
 20 22  1  0
 21 22  2  0
M  CHG  1   5  -1
M  END
> <Name>
72277

> <AbsoluteEnergy>
30.7138

> <ConfNumber>
1

> <Ionization pH>
8.08_DPPPP

> <IonizationIndex>
2

> <NumberOfIonizations>
2

> <NumberOfStereoisomers>
1

> <NumberOfTautomers>
1

> <OBJECTID>
9223375090579865613

> <PUBCHEM_ATOM_DEF_STEREO_COUNT>
2

> <PUBCHEM_ATOM_UDEF_STEREO_COUNT>
0

> <PUBCHEM_BONDANNOTATIONS>
11  13  8
11  14  8
12  16  8
12  17  8
13  15  8
14  18  8
15  19  8
16  21  8
17  20  8
18  19  8
8  2  5
20  22  8
21  22  8
9  12  5

> <PUBCHEM_BOND_DEF_STEREO_COUNT>
0

> <PUBCHEM_BOND_UDEF_STEREO_COUNT>
0

> <PUBCHEM_CACTVS_COMPLEXITY>
380

> <PUBCHEM_CACTVS_HBOND_ACCEPTOR>
7

> <PUBCHEM_CACTVS_HBOND_DONOR>
6

> <PUBCHEM_CACTVS_ROTATABLE_BOND>
1

> <PUBCHEM_CACTVS_SUBSKEYS>
AAADccBwOAAAAAAAAAAAAAAAAAAAAAAAAAA0YIAAAAAAAACRQAAAGgAACAAADBSgmAIwBoAABgCAAiBCAAACCAAgIAAAiAAGiIgNNyKGMRqCeCGlwBULuAfA4PwOIAABCAAIQABAAAIQABCAAAAAAAAAAA==

> <PUBCHEM_CACTVS_TAUTO_COUNT>
-1

> <PUBCHEM_CACTVS_TPSA>
131

> <PUBCHEM_COMPONENT_COUNT>
1

> <PUBCHEM_COMPOUND_CANONICALIZED>
1

> <PUBCHEM_COMPOUND_CID>
72277

> <PUBCHEM_COORDINATE_TYPE>
1
5
255

> <PUBCHEM_EXACT_MASS>
306.07395278

> <PUBCHEM_HEAVY_ATOM_COUNT>
22

> <PUBCHEM_ISOTOPIC_ATOM_COUNT>
0

> <PUBCHEM_IUPAC_CAS_NAME>
(2R,3R)-2-(3,4,5-trihydroxyphenyl)-3,4-dihydro-2H-1-benzopyran-3,5,7-triol

> <PUBCHEM_IUPAC_INCHI>
InChI=1S/C15H14O7/c16-7-3-9(17)8-5-12(20)15(22-13(8)4-7)6-1-10(18)14(21)11(19)2-6/h1-4,12,15-21H,5H2/t12-,15-/m1/s1

> <PUBCHEM_IUPAC_INCHIKEY>
XMOCLSLCDHWDHP-IUODEOHRSA-N

> <PUBCHEM_IUPAC_NAME>
(2R,3R)-2-(3,4,5-trihydroxyphenyl)-3,4-dihydro-2H-chromene-3,5,7-triol

> <PUBCHEM_IUPAC_NAME_MARKUP>
(2<I>R</I>,3<I>R</I>)-2-(3,4,5-trihydroxyphenyl)-3,4-dihydro-2<I>H</I>-chromene-3,5,7-triol

> <PUBCHEM_IUPAC_OPENEYE_NAME>
(2R,3R)-2-(3,4,5-trihydroxyphenyl)chromane-3,5,7-triol

> <PUBCHEM_IUPAC_SYSTEMATIC_NAME>
(2R,3R)-2-[3,4,5-tris(oxidanyl)phenyl]-3,4-dihydro-2H-chromene-3,5,7-triol

> <PUBCHEM_IUPAC_TRADITIONAL_NAME>
(2R,3R)-2-(3,4,5-trihydroxyphenyl)chroman-3,5,7-triol

> <PUBCHEM_MOLECULAR_FORMULA>
C15H14O7

> <PUBCHEM_MOLECULAR_WEIGHT>
306.27

> <PUBCHEM_MONOISOTOPIC_WEIGHT>
306.07395278

> <PUBCHEM_OPENEYE_CAN_SMILES>
C1C(C(OC2=CC(=CC(=C21)O)O)C3=CC(=C(C(=C3)O)O)O)O

> <PUBCHEM_OPENEYE_ISO_SMILES>
C1[C@H]([C@H](OC2=CC(=CC(=C21)O)O)C3=CC(=C(C(=C3)O)O)O)O

> <PUBCHEM_TOTAL_CHARGE>
0

> <PUBCHEM_XLOGP3>
0

> <RelativeEnergy>
0

> <StereoisomerIndex>
1

> <TautomerIndex>
1

> <LibDock Warning>
no hit found

> <ErrorText>
LibDock failed

$$$$
72281
  SciTegic09112317153D

 36 38  0  0  0  0            999 V2000
    1.5090   -0.1280   -1.9560 O   0  0  0  1  0  0
    0.3170   -3.2430    0.5860 O   0  0  0  1  0  0
    2.2220   -2.5710    2.2580 O   0  0  0  1  0  0
   -2.8310    2.8520    1.4330 O   0  0  0  1  0  0
   -2.2950    0.2820    2.2040 O   0  0  0  1  0  0
    5.4510    0.2560    0.4900 O   0  0  0  1  0  0
    0.1380   -0.5390   -1.9340 C   0  0  1  1  0  0
    0.0330   -2.0210   -1.5300 C   0  0  0  1  0  0
   -0.6510    0.3610   -1.0400 C   0  0  0  1  0  0
    1.8530   -1.5560    0.0480 C   0  0  0  1  0  0
    0.7600   -2.2960   -0.2370 C   0  0  0  1  0  0
    2.2820   -0.4980   -0.9150 C   0  0  0  1  0  0
   -1.1170   -0.1120    0.1980 C   0  0  0  1  0  0
   -0.9250    1.6810   -1.4360 C   0  0  0  1  0  0
    2.6520   -1.7710    1.2840 C   0  0  0  1  0  0
    3.4750    0.1080   -0.7470 C   0  0  0  1  0  0
   -1.8600    0.7330    1.0430 C   0  0  0  1  0  0
    3.8410   -1.1460    1.4270 C   0  0  0  1  0  0
    4.3460   -0.2240    0.3960 C   0  0  0  1  0  0
   -1.6680    2.5260   -0.5930 C   0  0  0  1  0  0
   -2.1350    2.0540    0.6470 C   0  0  0  1  0  0
   -4.2230    2.6070    1.5670 C   0  0  0  1  0  0
   -0.2580   -0.4070   -2.9410 H   0  0  0  1  0  0
    0.4820   -2.6340   -2.3120 H   0  0  0  1  0  0
   -1.0080   -2.3360   -1.4500 H   0  0  0  1  0  0
   -0.9060   -1.1270    0.5050 H   0  0  0  1  0  0
   -0.5700    2.0510   -2.3880 H   0  0  0  1  0  0
    3.8020    0.8560   -1.4550 H   0  0  0  1  0  0
    4.4320   -1.3230    2.3160 H   0  0  0  1  0  0
   -1.8780    3.5390   -0.8990 H   0  0  0  1  0  0
   -4.7410    3.1390    0.7730 H   0  0  0  1  0  0
   -4.3770    1.5290    1.6080 H   0  0  0  1  0  0
   -4.5510    3.0260    2.5200 H   0  0  0  1  0  0
    1.3020   -2.5110    2.5470 H   0  0  0  1  0  0
   -2.7110    0.8950    2.8220 H   0  0  0  1  0  0
    0.9510   -3.8240    1.0250 H   0  0  0  1  0  0
  1  7  1  0
  1 12  1  0
  2 11  1  0
  2 36  1  0
  3 15  1  0
  3 34  1  0
  4 21  1  0
  4 22  1  0
  5 17  1  0
  5 35  1  0
  6 19  2  0
  7  8  1  0
  7  9  1  0
  7 23  1  0
  8 11  1  0
  8 24  1  0
  8 25  1  0
  9 13  2  0
  9 14  1  0
 10 11  2  0
 10 12  1  0
 10 15  1  0
 12 16  2  0
 13 17  1  0
 13 26  1  0
 14 20  2  0
 14 27  1  0
 15 18  2  0
 16 19  1  0
 16 28  1  0
 17 21  2  0
 18 19  1  0
 18 29  1  0
 20 21  1  0
 20 30  1  0
 22 31  1  0
 22 32  1  0
 22 33  1  0
M  END
> <Name>
72281

> <AbsoluteEnergy>
42.1598

> <ConfNumber>
1

> <Ionization pH>
7.5

> <IonizationIndex>
1

> <NumberOfIonizations>
1

> <NumberOfStereoisomers>
1

> <NumberOfTautomers>
3

> <OBJECTID>
9223375103464767501

> <PUBCHEM_ATOM_DEF_STEREO_COUNT>
1

> <PUBCHEM_ATOM_UDEF_STEREO_COUNT>
0

> <PUBCHEM_BONDANNOTATIONS>
10  12  8
10  15  8
12  16  8
13  17  8
14  20  8
15  18  8
16  19  8
17  21  8
18  19  8
20  21  8
7  9  5
9  13  8
9  14  8

> <PUBCHEM_BOND_DEF_STEREO_COUNT>
0

> <PUBCHEM_BOND_UDEF_STEREO_COUNT>
0

> <PUBCHEM_CACTVS_COMPLEXITY>
413

> <PUBCHEM_CACTVS_HBOND_ACCEPTOR>
6

> <PUBCHEM_CACTVS_HBOND_DONOR>
3

> <PUBCHEM_CACTVS_ROTATABLE_BOND>
2

> <PUBCHEM_CACTVS_SUBSKEYS>
AAADccB4OAAAAAAAAAAAAAAAAAAAAAAAAAA0YIAAAAAAAACRQAAAGgAACAAADBSgmAIyBoAABgCIAqBSAAACCAAkIAAIiAEGiMgNJzaGNRqCeWOl4BULuQfI7PzOIAABCAAIQABAAAIQABCAAAAAAAAAAA==

> <PUBCHEM_CACTVS_TAUTO_COUNT>
-1

> <PUBCHEM_CACTVS_TPSA>
96.2

> <PUBCHEM_COMPONENT_COUNT>
1

> <PUBCHEM_COMPOUND_CANONICALIZED>
1

> <PUBCHEM_COMPOUND_CID>
72281

> <PUBCHEM_COORDINATE_TYPE>
1
5
255

> <PUBCHEM_EXACT_MASS>
302.07903816

> <PUBCHEM_HEAVY_ATOM_COUNT>
22

> <PUBCHEM_ISOTOPIC_ATOM_COUNT>
0

> <PUBCHEM_IUPAC_CAS_NAME>
(2S)-5,7-dihydroxy-2-(3-hydroxy-4-methoxyphenyl)-3,4-dihydro-2H-1-benzopyran-4-one

> <PUBCHEM_IUPAC_INCHI>
InChI=1S/C16H14O6/c1-21-13-3-2-8(4-10(13)18)14-7-12(20)16-11(19)5-9(17)6-15(16)22-14/h2-6,14,17-19H,7H2,1H3/t14-/m0/s1

> <PUBCHEM_IUPAC_INCHIKEY>
AIONOLUJZLIMTK-AWEZNQCLSA-N

> <PUBCHEM_IUPAC_NAME>
(2S)-5,7-dihydroxy-2-(3-hydroxy-4-methoxyphenyl)-2,3-dihydrochromen-4-one

> <PUBCHEM_IUPAC_NAME_MARKUP>
(2<I>S</I>)-5,7-dihydroxy-2-(3-hydroxy-4-methoxyphenyl)-2,3-dihydrochromen-4-one

> <PUBCHEM_IUPAC_OPENEYE_NAME>
(2S)-5,7-dihydroxy-2-(3-hydroxy-4-methoxy-phenyl)chroman-4-one

> <PUBCHEM_IUPAC_SYSTEMATIC_NAME>
(2S)-2-(4-methoxy-3-oxidanyl-phenyl)-5,7-bis(oxidanyl)-2,3-dihydrochromen-4-one

> <PUBCHEM_IUPAC_TRADITIONAL_NAME>
(2S)-5,7-dihydroxy-2-(3-hydroxy-4-methoxy-phenyl)chroman-4-one

> <PUBCHEM_MOLECULAR_FORMULA>
C16H14O6

> <PUBCHEM_MOLECULAR_WEIGHT>
302.28

> <PUBCHEM_MONOISOTOPIC_WEIGHT>
302.07903816

> <PUBCHEM_OPENEYE_CAN_SMILES>
COC1=C(C=C(C=C1)C2CC(=O)C3=C(C=C(C=C3O2)O)O)O

> <PUBCHEM_OPENEYE_ISO_SMILES>
COC1=C(C=C(C=C1)[C@@H]2CC(=O)C3=C(C=C(C=C3O2)O)O)O

> <PUBCHEM_TOTAL_CHARGE>
0

> <PUBCHEM_XLOGP3_AA>
2.4

> <RelativeEnergy>
0

> <StereoisomerIndex>
1

> <TautomerIndex>
3

> <LibDock Warning>
no hit found

> <ErrorText>
LibDock failed

$$$$
72344
  SciTegic09112317153D

 51 53  0  0  0  0            999 V2000
   -0.0470    0.4530   -0.1090 O   0  0  0  1  0  0
   -1.4970   -3.6760    1.8700 O   0  0  0  1  0  0
   -2.6820    1.1730   -0.4860 O   0  0  0  1  0  0
   -4.1140   -2.9310    1.4850 O   0  0  0  1  0  0
   -4.7100   -0.5140    0.3100 O   0  0  0  1  0  0
    1.1410   -3.0030    1.5690 O   0  0  0  1  0  0
    5.9100    1.5530   -0.4640 O   0  0  0  1  0  0
    5.1350    3.8720   -1.6910 O   0  0  0  1  0  0
   -0.7320   -1.6250    0.8870 C   0  0  0  1  0  0
   -1.0390   -0.3770    0.2820 C   0  0  0  1  0  0
   -1.7740   -2.4960    1.2970 C   0  0  0  1  0  0
   -2.3900   -0.0030    0.0860 C   0  0  0  1  0  0
    1.2650    0.1730    0.0420 C   0  0  0  1  0  0
   -3.1240   -2.1150    1.0990 C   0  0  0  1  0  0
   -3.4300   -0.8700    0.4950 C   0  0  0  1  0  0
    0.6980   -1.9910    1.0780 C   0  0  0  1  0  0
    2.2920    1.1550   -0.4180 C   0  0  0  1  0  0
    1.6750   -0.9860    0.6040 C   0  0  0  1  0  0
    3.6590    0.8890   -0.2210 C   0  0  0  1  0  0
    1.8960    2.3470   -1.0470 C   0  0  0  1  0  0
    4.6300    1.8100   -0.6530 C   0  0  0  1  0  0
    4.2320    3.0040   -1.2840 C   0  0  0  1  0  0
    2.8650    3.2700   -1.4790 C   0  0  0  1  0  0
   -2.3000   -4.7930    1.5170 C   0  0  0  1  0  0
   -3.5600    2.0510    0.2050 C   0  0  0  1  0  0
   -5.2380   -2.3580    2.1350 C   0  0  0  1  0  0
   -5.3950   -1.0480   -0.8160 C   0  0  0  1  0  0
    6.8550    2.5110   -0.9160 C   0  0  0  1  0  0
    4.6830    5.0330   -2.3730 C   0  0  0  1  0  0
    2.7290   -1.2000    0.7190 H   0  0  0  1  0  0
    3.9700   -0.0270    0.2630 H   0  0  0  1  0  0
    0.8480    2.5610   -1.2040 H   0  0  0  1  0  0
    2.5580    4.1840   -1.9630 H   0  0  0  1  0  0
   -1.7900   -5.7550    1.4360 H   0  0  0  1  0  0
   -2.7710   -4.5860    0.5560 H   0  0  0  1  0  0
   -3.0890   -4.8970    2.2600 H   0  0  0  1  0  0
   -3.3260    3.1140    0.1560 H   0  0  0  1  0  0
   -3.5760    1.7590    1.2550 H   0  0  0  1  0  0
   -4.5640    1.9130   -0.1950 H   0  0  0  1  0  0
   -5.8820   -3.0380    2.6910 H   0  0  0  1  0  0
   -5.8520   -1.8610    1.3820 H   0  0  0  1  0  0
   -4.8800   -1.5960    2.8280 H   0  0  0  1  0  0
   -6.4300   -0.7390   -0.9490 H   0  0  0  1  0  0
   -5.3770   -2.1360   -0.7400 H   0  0  0  1  0  0
   -4.8450   -0.7670   -1.7130 H   0  0  0  1  0  0
    7.9070    2.2760   -0.7490 H   0  0  0  1  0  0
    6.6420    3.4590   -0.4210 H   0  0  0  1  0  0
    6.7110    2.6540   -1.9860 H   0  0  0  1  0  0
    5.5500    5.6500   -2.6110 H   0  0  0  1  0  0
    4.0720    4.7160   -3.2170 H   0  0  0  1  0  0
    4.0450    5.6010   -1.6940 H   0  0  0  1  0  0
  1 10  1  0
  1 13  1  0
  2 11  1  0
  2 24  1  0
  3 12  1  0
  3 25  1  0
  4 14  1  0
  4 26  1  0
  5 15  1  0
  5 27  1  0
  6 16  2  0
  7 21  1  0
  7 28  1  0
  8 22  1  0
  8 29  1  0
  9 10  2  0
  9 11  1  0
  9 16  1  0
 10 12  1  0
 11 14  2  0
 12 15  2  0
 13 17  1  0
 13 18  2  0
 14 15  1  0
 16 18  1  0
 17 19  2  0
 17 20  1  0
 18 30  1  0
 19 21  1  0
 19 31  1  0
 20 23  2  0
 20 32  1  0
 21 22  2  0
 22 23  1  0
 23 33  1  0
 24 34  1  0
 24 35  1  0
 24 36  1  0
 25 37  1  0
 25 38  1  0
 25 39  1  0
 26 40  1  0
 26 41  1  0
 26 42  1  0
 27 43  1  0
 27 44  1  0
 27 45  1  0
 28 46  1  0
 28 47  1  0
 28 48  1  0
 29 49  1  0
 29 50  1  0
 29 51  1  0
M  END
> <Name>
72344

> <AbsoluteEnergy>
93.5302

> <ConfNumber>
1

> <IonizationIndex>
1

> <NumberOfIonizations>
1

> <NumberOfStereoisomers>
1

> <NumberOfTautomers>
1

> <OBJECTID>
9223375107759734797

> <PUBCHEM_ATOM_DEF_STEREO_COUNT>
0

> <PUBCHEM_ATOM_UDEF_STEREO_COUNT>
0

> <PUBCHEM_BONDANNOTATIONS>
1  10  8
1  13  8
10  12  8
11  14  8
12  15  8
13  18  8
14  15  8
16  18  8
17  19  8
17  20  8
19  21  8
20  23  8
21  22  8
22  23  8
9  10  8
9  11  8
9  16  8

> <PUBCHEM_BOND_DEF_STEREO_COUNT>
0

> <PUBCHEM_BOND_UDEF_STEREO_COUNT>
0

> <PUBCHEM_CACTVS_COMPLEXITY>
593

> <PUBCHEM_CACTVS_HBOND_ACCEPTOR>
8

> <PUBCHEM_CACTVS_HBOND_DONOR>
0

> <PUBCHEM_CACTVS_ROTATABLE_BOND>
7

> <PUBCHEM_CACTVS_SUBSKEYS>
AAADceB4PAAAAAAAAAAAAAAAAAAAAAAAAAAwYIAAAAAAAACBQAAAGgAAAAAADASAmAIyBoAABACIAqBSAAACCAAkIAAIiAEGiMgNJzaENRqCOWKl4BUKqQfK7LzOIQABCAAIQABCAAIQABCAAAAAAAAAAA==

> <PUBCHEM_CACTVS_TAUTO_COUNT>
1

> <PUBCHEM_CACTVS_TPSA>
81.7

> <PUBCHEM_COMPONENT_COUNT>
1

> <PUBCHEM_COMPOUND_CANONICALIZED>
1

> <PUBCHEM_COMPOUND_CID>
72344

> <PUBCHEM_COORDINATE_TYPE>
1
5
255

> <PUBCHEM_EXACT_MASS>
402.13146766

> <PUBCHEM_HEAVY_ATOM_COUNT>
29

> <PUBCHEM_ISOTOPIC_ATOM_COUNT>
0

> <PUBCHEM_IUPAC_CAS_NAME>
2-(3,4-dimethoxyphenyl)-5,6,7,8-tetramethoxy-1-benzopyran-4-one

> <PUBCHEM_IUPAC_INCHI>
InChI=1S/C21H22O8/c1-23-13-8-7-11(9-15(13)24-2)14-10-12(22)16-17(25-3)19(26-4)21(28-6)20(27-5)18(16)29-14/h7-10H,1-6H3

> <PUBCHEM_IUPAC_INCHIKEY>
MRIAQLRQZPPODS-UHFFFAOYSA-N

> <PUBCHEM_IUPAC_NAME>
2-(3,4-dimethoxyphenyl)-5,6,7,8-tetramethoxychromen-4-one

> <PUBCHEM_IUPAC_NAME_MARKUP>
2-(3,4-dimethoxyphenyl)-5,6,7,8-tetramethoxychromen-4-one

> <PUBCHEM_IUPAC_OPENEYE_NAME>
2-(3,4-dimethoxyphenyl)-5,6,7,8-tetramethoxy-chromen-4-one

> <PUBCHEM_IUPAC_SYSTEMATIC_NAME>
2-(3,4-dimethoxyphenyl)-5,6,7,8-tetramethoxy-chromen-4-one

> <PUBCHEM_IUPAC_TRADITIONAL_NAME>
2-(3,4-dimethoxyphenyl)-5,6,7,8-tetramethoxy-chromone

> <PUBCHEM_MOLECULAR_FORMULA>
C21H22O8

> <PUBCHEM_MOLECULAR_WEIGHT>
402.4

> <PUBCHEM_MONOISOTOPIC_WEIGHT>
402.13146766

> <PUBCHEM_OPENEYE_CAN_SMILES>
COC1=C(C=C(C=C1)C2=CC(=O)C3=C(O2)C(=C(C(=C3OC)OC)OC)OC)OC

> <PUBCHEM_OPENEYE_ISO_SMILES>
COC1=C(C=C(C=C1)C2=CC(=O)C3=C(O2)C(=C(C(=C3OC)OC)OC)OC)OC

> <PUBCHEM_TOTAL_CHARGE>
0

> <PUBCHEM_XLOGP3_AA>
3

> <RelativeEnergy>
0

> <StereoisomerIndex>
1

> <TautomerIndex>
1

> <LibDock Warning>
no hit found

> <ErrorText>
LibDock failed

$$$$
83489
  SciTegic09112317153D

 74 78  0  0  0  0            999 V2000
    2.1360   -0.4550    0.0300 O   0  0  0  1  0  0
    3.0080    1.7470    1.5580 O   0  0  0  1  0  0
    1.5660    3.1400    2.6910 O   0  0  0  1  0  0
    5.1680   -0.8760    2.0160 O   0  0  0  1  0  0
    1.4230   -1.2380   -2.0260 O   0  0  0  1  0  0
    6.0580   -1.5890   -0.6630 O   0  0  0  1  0  0
    3.8880   -2.6670   -2.2850 O   0  0  0  1  0  0
    5.0010    3.7680    1.4440 O   0  0  0  1  0  0
    4.7640    5.2730    3.7300 O   0  0  0  1  0  0
    1.9560    6.5350    4.0520 O   0  0  0  1  0  0
   -3.2920   -1.8080   -2.0290 O   0  0  0  1  0  0
   -0.2740   -5.5470   -2.3650 O   0  0  0  1  0  0
   -2.8590   -5.9770   -2.0430 O   0  0  0  1  0  0
   -7.5320   -0.6130    0.6420 O   0  0  0  1  0  0
   -9.2150    0.0390   -1.4150 O   0  0  0  1  0  0
    2.9130   -0.6100    1.2120 C   0  0  1  1  0  0
    4.4130   -0.6300    0.8420 C   0  0  2  1  0  0
    4.7180   -1.7170   -0.2120 C   0  0  1  1  0  0
    3.7480   -1.5660   -1.4050 C   0  0  2  1  0  0
    3.6750    4.0910    1.8460 C   0  0  1  1  0  0
    2.9440    2.8570    2.4340 C   0  0  2  1  0  0
    3.6460    5.2770    2.8520 C   0  0  1  1  0  0
    2.3620    5.2190    3.7210 C   0  0  2  1  0  0
    2.2830   -1.4970   -0.9240 C   0  0  1  1  0  0
    2.5450    0.5520    2.1420 C   0  0  0  1  0  0
    1.2190    4.4990    2.9670 C   0  0  2  1  0  0
   -0.1050    4.4590    3.7350 C   0  0  0  1  0  0
    0.3950   -2.0820   -2.0770 C   0  0  0  1  0  0
   -0.9870   -1.5600   -2.0230 C   0  0  0  1  0  0
   -2.0690   -2.3660   -2.0470 C   0  0  0  1  0  0
    0.6160   -3.4080   -2.1810 C   0  0  0  1  0  0
   -4.3800   -2.6270   -2.4680 C   0  0  1  1  0  0
   -1.8850   -3.8420   -2.0870 C   0  0  0  1  0  0
   -4.3190   -4.0110   -1.7950 C   0  0  0  1  0  0
   -0.5040   -4.3670   -2.2230 C   0  0  0  1  0  0
   -2.9630   -4.6510   -1.9850 C   0  0  0  1  0  0
   -5.6590   -1.9220   -2.1890 C   0  0  0  1  0  0
   -6.0060   -1.5880   -0.8670 C   0  0  0  1  0  0
   -6.5250   -1.5870   -3.2450 C   0  0  0  1  0  0
   -7.2130   -0.9210   -0.5980 C   0  0  0  1  0  0
   -7.7320   -0.9210   -2.9780 C   0  0  0  1  0  0
   -8.0810   -0.5870   -1.6580 C   0  0  0  1  0  0
    2.6180   -1.5510    1.6800 H   0  0  0  1  0  0
    4.7070    0.3520    0.4660 H   0  0  0  1  0  0
    4.6090   -2.7080    0.2320 H   0  0  0  1  0  0
    3.9840   -0.6630   -1.9720 H   0  0  0  1  0  0
    3.1610    4.4010    0.9330 H   0  0  0  1  0  0
    3.4030    2.5690    3.3790 H   0  0  0  1  0  0
    3.6990    6.2060    2.2810 H   0  0  0  1  0  0
    2.5400    4.6940    4.6620 H   0  0  0  1  0  0
    1.9670   -2.4350   -0.4620 H   0  0  0  1  0  0
    1.4650    0.6250    2.2580 H   0  0  0  1  0  0
    3.0320    0.4380    3.1100 H   0  0  0  1  0  0
    1.0600    4.9880    2.0040 H   0  0  0  1  0  0
   -0.8520    3.8850    3.1860 H   0  0  0  1  0  0
    0.0320    4.0150    4.7190 H   0  0  0  1  0  0
   -0.4990    5.4660    3.8770 H   0  0  0  1  0  0
   -1.1320   -0.4920   -1.9670 H   0  0  0  1  0  0
   -4.2910   -2.7460   -3.5490 H   0  0  0  1  0  0
    1.6310   -3.7770   -2.2320 H   0  0  0  1  0  0
   -5.0900   -4.6670   -2.2060 H   0  0  0  1  0  0
   -4.5150   -3.9250   -0.7260 H   0  0  0  1  0  0
   -5.3420   -1.8440   -0.0540 H   0  0  0  1  0  0
   -6.2650   -1.8400   -4.2630 H   0  0  0  1  0  0
   -8.3950   -0.6660   -3.7930 H   0  0  0  1  0  0
    5.2260   -0.0360    2.5000 H   0  0  0  1  0  0
    6.2950   -2.4150   -1.1120 H   0  0  0  1  0  0
    3.4720   -2.4220   -3.1260 H   0  0  0  1  0  0
    4.9360    3.2750    0.6110 H   0  0  0  1  0  0
    5.5130    5.6450    3.2400 H   0  0  0  1  0  0
    1.3890    6.4700    4.8360 H   0  0  0  1  0  0
   -6.9270   -0.8460    1.3570 H   0  0  0  1  0  0
   -9.4450    0.2640   -0.5040 H   0  0  0  1  0  0
   -2.0990   -6.4110   -1.6360 H   0  0  0  1  0  0
  1 16  1  0
  1 24  1  0
  2 21  1  0
  2 25  1  0
  3 21  1  0
  3 26  1  0
  4 17  1  0
  4 66  1  0
  5 24  1  0
  5 28  1  0
  6 18  1  0
  6 67  1  0
  7 19  1  0
  7 68  1  0
  8 20  1  0
  8 69  1  0
  9 22  1  0
  9 70  1  0
 10 23  1  0
 10 71  1  0
 11 30  1  0
 11 32  1  0
 12 35  2  0
 13 36  1  0
 13 74  1  0
 14 40  1  0
 14 72  1  0
 15 42  1  0
 15 73  1  0
 16 17  1  0
 16 25  1  0
 16 43  1  0
 17 18  1  0
 17 44  1  0
 18 19  1  0
 18 45  1  0
 19 24  1  0
 19 46  1  0
 20 21  1  0
 20 22  1  0
 20 47  1  0
 21 48  1  0
 22 23  1  0
 22 49  1  0
 23 26  1  0
 23 50  1  0
 24 51  1  0
 25 52  1  0
 25 53  1  0
 26 27  1  0
 26 54  1  0
 27 55  1  0
 27 56  1  0
 27 57  1  0
 28 29  1  0
 28 31  2  0
 29 30  2  0
 29 58  1  0
 30 33  1  0
 31 35  1  0
 31 60  1  0
 32 34  1  0
 32 37  1  0
 32 59  1  0
 33 35  1  0
 33 36  2  0
 34 36  1  0
 34 61  1  0
 34 62  1  0
 37 38  2  0
 37 39  1  0
 38 40  1  0
 38 63  1  0
 39 41  2  0
 39 64  1  0
 40 42  2  0
 41 42  1  0
 41 65  1  0
M  END
> <Name>
83489

> <AbsoluteEnergy>
47.5396

> <ConfNumber>
1

> <Ionization pH>
7.5

> <IonizationIndex>
1

> <NumberOfIonizations>
1

> <NumberOfStereoisomers>
1

> <NumberOfTautomers>
2

> <OBJECTID>
9223375129234571277

> <PUBCHEM_ATOM_DEF_STEREO_COUNT>
11

> <PUBCHEM_ATOM_UDEF_STEREO_COUNT>
0

> <PUBCHEM_BONDANNOTATIONS>
23  10  5
16  25  5
21  2  5
26  27  6
28  29  8
28  31  8
29  30  8
30  33  8
31  35  8
32  37  5
33  35  8
37  38  8
37  39  8
38  40  8
39  41  8
17  4  6
40  42  8
41  42  8
24  5  5
18  6  5
19  7  6
20  8  6
22  9  6

> <PUBCHEM_BOND_DEF_STEREO_COUNT>
0

> <PUBCHEM_BOND_UDEF_STEREO_COUNT>
0

> <PUBCHEM_CACTVS_COMPLEXITY>
924

> <PUBCHEM_CACTVS_HBOND_ACCEPTOR>
15

> <PUBCHEM_CACTVS_HBOND_DONOR>
9

> <PUBCHEM_CACTVS_ROTATABLE_BOND>
6

> <PUBCHEM_CACTVS_SUBSKEYS>
AAADcfB4PAAAAAAAAAAAAAAAAAAAAAAAAAA0aJECAAAAAACRQAAAGgAACAAADBSwmAMyDoAABgCIAqBSAAACCAAkIAAIiAEGiMgdNzaGNRqieWGl4BUPuQfI7PzOIAABCAAIQABAAAIQABCAAAAAAAAAAA==

> <PUBCHEM_CACTVS_TAUTO_COUNT>
90

> <PUBCHEM_CACTVS_TPSA>
245

> <PUBCHEM_COMPONENT_COUNT>
1

> <PUBCHEM_COMPOUND_CANONICALIZED>
1

> <PUBCHEM_COMPOUND_CID>
83489

> <PUBCHEM_COORDINATE_TYPE>
1
5
255

> <PUBCHEM_EXACT_MASS>
596.17412031

> <PUBCHEM_HEAVY_ATOM_COUNT>
42

> <PUBCHEM_ISOTOPIC_ATOM_COUNT>
0

> <PUBCHEM_IUPAC_CAS_NAME>
(2S)-2-(3,4-dihydroxyphenyl)-5-hydroxy-7-[[(2S,3R,4S,5S,6R)-3,4,5-trihydroxy-6-[[(2R,3R,4R,5R,6S)-3,4,5-trihydroxy-6-methyl-2-oxanyl]oxymethyl]-2-oxanyl]oxy]-3,4-dihydro-2H-1-benzopyran-4-one

> <PUBCHEM_IUPAC_INCHI>
InChI=1S/C27H32O15/c1-9-20(32)22(34)24(36)26(39-9)38-8-18-21(33)23(35)25(37)27(42-18)40-11-5-14(30)19-15(31)7-16(41-17(19)6-11)10-2-3-12(28)13(29)4-10/h2-6,9,16,18,20-30,32-37H,7-8H2,1H3/t9-,16-,18+,2
0-,21+,22+,23-,24+,25+,26+,27+/m0/s1

> <PUBCHEM_IUPAC_INCHIKEY>
OMQADRGFMLGFJF-MNPJBKLOSA-N

> <PUBCHEM_IUPAC_NAME>
(2S)-2-(3,4-dihydroxyphenyl)-5-hydroxy-7-[(2S,3R,4S,5S,6R)-3,4,5-trihydroxy-6-[[(2R,3R,4R,5R,6S)-3,4,5-trihydroxy-6-methyloxan-2-yl]oxymethyl]oxan-2-yl]oxy-2,3-dihydrochromen-4-one

> <PUBCHEM_IUPAC_NAME_MARKUP>
(2<I>S</I>)-2-(3,4-dihydroxyphenyl)-5-hydroxy-7-[(2<I>S</I>,3<I>R</I>,4<I>S</I>,5<I>S</I>,6<I>R</I>)-3,4,5-trihydroxy-6-[[(2<I>R</I>,3<I>R</I>,4<I>R</I>,5<I>R</I>,6<I>S</I>)-3,4,5-trihydroxy-6-methylo
xan-2-yl]oxymethyl]oxan-2-yl]oxy-2,3-dihydrochromen-4-one

> <PUBCHEM_IUPAC_OPENEYE_NAME>
(2S)-2-(3,4-dihydroxyphenyl)-5-hydroxy-7-[(2S,3R,4S,5S,6R)-3,4,5-trihydroxy-6-[[(2R,3R,4R,5R,6S)-3,4,5-trihydroxy-6-methyl-tetrahydropyran-2-yl]oxymethyl]tetrahydropyran-2-yl]oxy-chroman-4-one

> <PUBCHEM_IUPAC_SYSTEMATIC_NAME>
(2S)-2-[3,4-bis(oxidanyl)phenyl]-7-[(2S,3R,4S,5S,6R)-6-[[(2R,3R,4R,5R,6S)-6-methyl-3,4,5-tris(oxidanyl)oxan-2-yl]oxymethyl]-3,4,5-tris(oxidanyl)oxan-2-yl]oxy-5-oxidanyl-2,3-dihydrochromen-4-one

> <PUBCHEM_IUPAC_TRADITIONAL_NAME>
(2S)-2-(3,4-dihydroxyphenyl)-5-hydroxy-7-[(2S,3R,4S,5S,6R)-3,4,5-trihydroxy-6-[[(2R,3R,4R,5R,6S)-3,4,5-trihydroxy-6-methyl-tetrahydropyran-2-yl]oxymethyl]tetrahydropyran-2-yl]oxy-chroman-4-one

> <PUBCHEM_MOLECULAR_FORMULA>
C27H32O15

> <PUBCHEM_MOLECULAR_WEIGHT>
596.5

> <PUBCHEM_MONOISOTOPIC_WEIGHT>
596.17412031

> <PUBCHEM_OPENEYE_CAN_SMILES>
CC1C(C(C(C(O1)OCC2C(C(C(C(O2)OC3=CC(=C4C(=O)CC(OC4=C3)C5=CC(=C(C=C5)O)O)O)O)O)O)O)O)O

> <PUBCHEM_OPENEYE_ISO_SMILES>
C[C@H]1[C@@H]([C@H]([C@H]([C@@H](O1)OC[C@@H]2[C@H]([C@@H]([C@H]([C@@H](O2)OC3=CC(=C4C(=O)C[C@H](OC4=C3)C5=CC(=C(C=C5)O)O)O)O)O)O)O)O)O

> <PUBCHEM_TOTAL_CHARGE>
0

> <PUBCHEM_XLOGP3_AA>
-1.4

> <RelativeEnergy>
0

> <StereoisomerIndex>
1

> <TautomerIndex>
2

> <LibDock Warning>
no hit found

> <ErrorText>
LibDock failed

$$$$
107905
  SciTegic09112317153D

 50 53  0  0  0  0            999 V2000
    0.3730   -0.7310   -1.6270 O   0  0  0  1  0  0
   -0.7050    0.8980    1.4960 O   0  0  0  1  0  0
    4.1190    1.8900   -0.1020 O   0  0  0  1  0  0
    4.5160   -0.8570   -3.9720 O   0  0  0  1  0  0
   -0.3110    3.6640   -3.7920 O   0  0  0  1  0  0
   -0.0530    1.2270    3.6150 O   0  0  0  1  0  0
   -2.8850    4.3720   -3.1940 O   0  0  0  1  0  0
   -3.5200   -3.2680    2.1160 O   0  0  0  1  0  0
    0.0710   -3.6780    5.1620 O   0  0  0  1  0  0
   -2.1100   -4.7540    3.9230 O   0  0  0  1  0  0
    0.1750    0.2340    0.5990 C   0  0  1  1  0  0
   -0.5480   -0.1060   -0.7190 C   0  0  1  1  0  0
    1.4170    1.1070    0.3380 C   0  0  0  1  0  0
    2.2260    0.6020   -0.7980 C   0  0  0  1  0  0
    1.6540   -0.3120   -1.7320 C   0  0  0  1  0  0
   -1.1680    1.0800   -1.3760 C   0  0  0  1  0  0
    3.5710    1.0230   -0.9630 C   0  0  0  1  0  0
    2.4390   -0.8060   -2.8010 C   0  0  0  1  0  0
   -0.4280    1.8380   -2.3020 C   0  0  0  1  0  0
   -2.4900    1.4470   -1.0720 C   0  0  0  1  0  0
    4.3440    0.5310   -2.0390 C   0  0  0  1  0  0
    3.7800   -0.3860   -2.9570 C   0  0  0  1  0  0
   -0.5220    0.5160    2.7580 C   0  0  0  1  0  0
   -1.0080    2.9590   -2.9230 C   0  0  0  1  0  0
   -3.0700    2.5650   -1.6920 C   0  0  0  1  0  0
   -2.3330    3.3240   -2.6170 C   0  0  0  1  0  0
   -0.9440   -0.8820    3.0670 C   0  0  0  1  0  0
   -0.2190   -1.6480    3.9980 C   0  0  0  1  0  0
   -2.0670   -1.4370    2.4290 C   0  0  0  1  0  0
   -2.4660   -2.7550    2.7170 C   0  0  0  1  0  0
   -0.6140   -2.9660    4.2890 C   0  0  0  1  0  0
   -1.7390   -3.5190    3.6480 C   0  0  0  1  0  0
    0.4870   -0.6950    1.0790 H   0  0  0  1  0  0
   -1.3470   -0.8220   -0.5270 H   0  0  0  1  0  0
    2.0210    1.1530    1.2470 H   0  0  0  1  0  0
    1.1140    2.1300    0.1150 H   0  0  0  1  0  0
    2.0100   -1.5070   -3.5030 H   0  0  0  1  0  0
    0.5880    1.5600   -2.5410 H   0  0  0  1  0  0
   -3.0630    0.8680   -0.3600 H   0  0  0  1  0  0
    5.3660    0.8550   -2.1630 H   0  0  0  1  0  0
   -4.0870    2.8420   -1.4550 H   0  0  0  1  0  0
    0.6450   -1.2280    4.4910 H   0  0  0  1  0  0
   -2.6300   -0.8550    1.7110 H   0  0  0  1  0  0
    5.0370    2.1670   -0.2280 H   0  0  0  1  0  0
    5.4300   -0.5620   -4.0690 H   0  0  0  1  0  0
   -0.7160    4.4310   -4.2130 H   0  0  0  1  0  0
   -3.7940    4.6090   -2.9740 H   0  0  0  1  0  0
   -3.7860   -4.1740    2.3200 H   0  0  0  1  0  0
    0.8390   -3.2850    5.5940 H   0  0  0  1  0  0
   -1.6030   -5.2700    4.5620 H   0  0  0  1  0  0
  1 12  1  0
  1 15  1  0
  2 11  1  0
  2 23  1  0
  3 17  1  0
  3 44  1  0
  4 22  1  0
  4 45  1  0
  5 24  1  0
  5 46  1  0
  6 23  2  0
  7 26  1  0
  7 47  1  0
  8 30  1  0
  8 48  1  0
  9 31  1  0
  9 49  1  0
 10 32  1  0
 10 50  1  0
 11 12  1  0
 11 13  1  0
 11 33  1  0
 12 16  1  0
 12 34  1  0
 13 14  1  0
 13 35  1  0
 13 36  1  0
 14 15  2  0
 14 17  1  0
 15 18  1  0
 16 19  2  0
 16 20  1  0
 17 21  2  0
 18 22  2  0
 18 37  1  0
 19 24  1  0
 19 38  1  0
 20 25  2  0
 20 39  1  0
 21 22  1  0
 21 40  1  0
 23 27  1  0
 24 26  2  0
 25 26  1  0
 25 41  1  0
 27 28  2  0
 27 29  1  0
 28 31  1  0
 28 42  1  0
 29 30  2  0
 29 43  1  0
 30 32  1  0
 31 32  2  0
M  END
> <Name>
107905

> <AbsoluteEnergy>
46.1758

> <ConfNumber>
1

> <Ionization pH>
7.5

> <IonizationIndex>
1

> <NumberOfIonizations>
1

> <NumberOfStereoisomers>
1

> <NumberOfTautomers>
2

> <OBJECTID>
9223375146414440461

> <PUBCHEM_ATOM_DEF_STEREO_COUNT>
2

> <PUBCHEM_ATOM_UDEF_STEREO_COUNT>
0

> <PUBCHEM_BONDANNOTATIONS>
12  16  5
14  15  8
14  17  8
15  18  8
16  19  8
16  20  8
17  21  8
18  22  8
19  24  8
11  2  5
20  25  8
21  22  8
24  26  8
25  26  8
27  28  8
27  29  8
28  31  8
29  30  8
30  32  8
31  32  8

> <PUBCHEM_BOND_DEF_STEREO_COUNT>
0

> <PUBCHEM_BOND_UDEF_STEREO_COUNT>
0

> <PUBCHEM_CACTVS_COMPLEXITY>
649

> <PUBCHEM_CACTVS_HBOND_ACCEPTOR>
10

> <PUBCHEM_CACTVS_HBOND_DONOR>
7

> <PUBCHEM_CACTVS_ROTATABLE_BOND>
4

> <PUBCHEM_CACTVS_SUBSKEYS>
AAADceB4PAAAAAAAAAAAAAAAAAAAAAAAAAA0YMEAAAAAAACRUAAAGgAACAAADBSgmAIwDoAABgCIAiDSCAACCAAkIAAIiAEGiMgNJzKGNRqCeSGlwBULuYfK7PzOIAABCAAIQABAAAIQABCAAAAAAAAAAA==

> <PUBCHEM_CACTVS_TAUTO_COUNT>
-1

> <PUBCHEM_CACTVS_TPSA>
177

> <PUBCHEM_COMPONENT_COUNT>
1

> <PUBCHEM_COMPOUND_CANONICALIZED>
1

> <PUBCHEM_COMPOUND_CID>
107905

> <PUBCHEM_COORDINATE_TYPE>
1
5
255

> <PUBCHEM_EXACT_MASS>
442.08999677

> <PUBCHEM_HEAVY_ATOM_COUNT>
32

> <PUBCHEM_ISOTOPIC_ATOM_COUNT>
0

> <PUBCHEM_IUPAC_CAS_NAME>
3,4,5-trihydroxybenzoic acid [(2R,3R)-2-(3,4-dihydroxyphenyl)-5,7-dihydroxy-3,4-dihydro-2H-1-benzopyran-3-yl] ester

> <PUBCHEM_IUPAC_INCHI>
InChI=1S/C22H18O10/c23-11-6-14(25)12-8-19(32-22(30)10-4-16(27)20(29)17(28)5-10)21(31-18(12)7-11)9-1-2-13(24)15(26)3-9/h1-7,19,21,23-29H,8H2/t19-,21-/m1/s1

> <PUBCHEM_IUPAC_INCHIKEY>
LSHVYAFMTMFKBA-TZIWHRDSSA-N

> <PUBCHEM_IUPAC_NAME>
[(2R,3R)-2-(3,4-dihydroxyphenyl)-5,7-dihydroxy-3,4-dihydro-2H-chromen-3-yl] 3,4,5-trihydroxybenzoate

> <PUBCHEM_IUPAC_NAME_MARKUP>
[(2<I>R</I>,3<I>R</I>)-2-(3,4-dihydroxyphenyl)-5,7-dihydroxy-3,4-dihydro-2<I>H</I>-chromen-3-yl] 3,4,5-trihydroxybenzoate

> <PUBCHEM_IUPAC_OPENEYE_NAME>
[(2R,3R)-2-(3,4-dihydroxyphenyl)-5,7-dihydroxy-chroman-3-yl] 3,4,5-trihydroxybenzoate

> <PUBCHEM_IUPAC_SYSTEMATIC_NAME>
[(2R,3R)-2-[3,4-bis(oxidanyl)phenyl]-5,7-bis(oxidanyl)-3,4-dihydro-2H-chromen-3-yl] 3,4,5-tris(oxidanyl)benzoate

> <PUBCHEM_IUPAC_TRADITIONAL_NAME>
3,4,5-trihydroxybenzoic acid [(2R,3R)-2-(3,4-dihydroxyphenyl)-5,7-dihydroxy-chroman-3-yl] ester

> <PUBCHEM_MOLECULAR_FORMULA>
C22H18O10

> <PUBCHEM_MOLECULAR_WEIGHT>
442.4

> <PUBCHEM_MONOISOTOPIC_WEIGHT>
442.08999677

> <PUBCHEM_OPENEYE_CAN_SMILES>
C1C(C(OC2=CC(=CC(=C21)O)O)C3=CC(=C(C=C3)O)O)OC(=O)C4=CC(=C(C(=C4)O)O)O

> <PUBCHEM_OPENEYE_ISO_SMILES>
C1[C@H]([C@H](OC2=CC(=CC(=C21)O)O)C3=CC(=C(C=C3)O)O)OC(=O)C4=CC(=C(C(=C4)O)O)O

> <PUBCHEM_TOTAL_CHARGE>
0

> <PUBCHEM_XLOGP3>
1.5

> <RelativeEnergy>
0

> <StereoisomerIndex>
1

> <TautomerIndex>
1

> <LibDock Warning>
no hit found

> <ErrorText>
LibDock failed

$$$$
107905
  SciTegic09112317153D

 50 53  0  0  0  0            999 V2000
    0.3840   -0.2130    2.4910 O   0  0  0  1  0  0
   -0.5580   -1.9260   -0.6330 O   0  0  0  1  0  0
   -4.3680   -0.9880    2.7460 O   0  0  0  1  0  0
   -2.0410    0.9670    6.4160 O   0  0  0  1  0  0
    1.5750    4.1000    0.0600 O   0  0  0  1  0  0
    1.5780   -2.6910   -0.2960 O   0  0  0  1  0  0
   -0.3150    4.1670   -1.9180 O   0  0  0  1  0  0
    3.9700   -1.7160   -4.5190 O   0  0  0  1  0  0
   -0.6630   -0.4540   -5.3600 O   0  0  0  1  0  0
    1.9680   -0.7360   -6.1440 O   0  0  0  1  0  0
   -0.5690   -1.6310    0.7590 C   0  0  1  1  0  0
    0.4500   -0.5240    1.0910 C   0  0  1  1  0  0
   -1.9890   -1.2290    1.1960 C   0  0  0  1  0  0
   -2.0050   -0.6420    2.5610 C   0  0  0  1  0  0
   -0.7960   -0.1640    3.1480 C   0  0  0  1  0  0
    0.2480    0.7210    0.2930 C   0  0  0  1  0  0
   -3.2210   -0.5540    3.2890 C   0  0  0  1  0  0
   -0.8180    0.3730    4.4560 C   0  0  0  1  0  0
    1.0260    1.8600    0.5560 C   0  0  0  1  0  0
   -0.7230    0.7580   -0.7230 C   0  0  0  1  0  0
   -3.2320   -0.0060    4.5920 C   0  0  0  1  0  0
   -2.0300    0.4520    5.1770 C   0  0  0  1  0  0
    0.6700   -2.1360   -1.0950 C   0  0  0  1  0  0
    0.8410    3.0350   -0.1940 C   0  0  0  1  0  0
   -0.9110    1.9310   -1.4740 C   0  0  0  1  0  0
   -0.1320    3.0720   -1.2110 C   0  0  0  1  0  0
    0.9920   -1.7950   -2.3550 C   0  0  0  1  0  0
   -0.0340   -1.2740   -3.2790 C   0  0  0  1  0  0
    2.3800   -1.9320   -2.8430 C   0  0  0  1  0  0
    2.7140   -1.5830   -4.1030 C   0  0  0  1  0  0
    0.2810   -0.9210   -4.5430 C   0  0  0  1  0  0
    1.6750   -1.0560   -5.0160 C   0  0  0  1  0  0
   -0.2800   -2.5440    1.2830 H   0  0  0  1  0  0
    1.4590   -0.8780    0.8830 H   0  0  0  1  0  0
   -2.6420   -2.1020    1.1510 H   0  0  0  1  0  0
   -2.4010   -0.4940    0.5040 H   0  0  0  1  0  0
    0.1000    0.7250    4.9060 H   0  0  0  1  0  0
    1.7750    1.8370    1.3360 H   0  0  0  1  0  0
   -1.3260   -0.1150   -0.9310 H   0  0  0  1  0  0
   -4.1600    0.0600    5.1410 H   0  0  0  1  0  0
   -1.6580    1.9550   -2.2540 H   0  0  0  1  0  0
   -1.0580   -1.1700   -2.9420 H   0  0  0  1  0  0
    3.1430   -2.3180   -2.1820 H   0  0  0  1  0  0
   -4.3690   -1.3090    1.8350 H   0  0  0  1  0  0
   -2.8750    1.0160    6.9000 H   0  0  0  1  0  0
    1.4400    4.9020   -0.4620 H   0  0  0  1  0  0
   -0.9850    4.1770   -2.6130 H   0  0  0  1  0  0
    4.1970   -1.4620   -5.4230 H   0  0  0  1  0  0
   -1.5680   -0.3710   -5.0360 H   0  0  0  1  0  0
    1.2890   -3.1350    0.5110 H   0  0  0  1  0  0
  1 12  1  0
  1 15  1  0
  2 11  1  0
  2 23  1  0
  3 17  1  0
  3 44  1  0
  4 22  1  0
  4 45  1  0
  5 24  1  0
  5 46  1  0
  6 23  1  0
  6 50  1  0
  7 26  1  0
  7 47  1  0
  8 30  1  0
  8 48  1  0
  9 31  1  0
  9 49  1  0
 10 32  2  0
 11 12  1  0
 11 13  1  0
 11 33  1  0
 12 16  1  0
 12 34  1  0
 13 14  1  0
 13 35  1  0
 13 36  1  0
 14 15  2  0
 14 17  1  0
 15 18  1  0
 16 19  2  0
 16 20  1  0
 17 21  2  0
 18 22  2  0
 18 37  1  0
 19 24  1  0
 19 38  1  0
 20 25  2  0
 20 39  1  0
 21 22  1  0
 21 40  1  0
 23 27  2  0
 24 26  2  0
 25 26  1  0
 25 41  1  0
 27 28  1  0
 27 29  1  0
 28 31  2  0
 28 42  1  0
 29 30  2  0
 29 43  1  0
 30 32  1  0
 31 32  1  0
M  END
> <Name>
107905

> <AbsoluteEnergy>
42.0081

> <ConfNumber>
1

> <Ionization pH>
7.5

> <IonizationIndex>
1

> <NumberOfIonizations>
1

> <NumberOfStereoisomers>
1

> <NumberOfTautomers>
2

> <OBJECTID>
9223375150709407757

> <PUBCHEM_ATOM_DEF_STEREO_COUNT>
2

> <PUBCHEM_ATOM_UDEF_STEREO_COUNT>
0

> <PUBCHEM_BONDANNOTATIONS>
12  16  5
14  15  8
14  17  8
15  18  8
16  19  8
16  20  8
17  21  8
18  22  8
19  24  8
11  2  5
20  25  8
21  22  8
24  26  8
25  26  8
27  28  8
27  29  8
28  31  8
29  30  8
30  32  8
31  32  8

> <PUBCHEM_BOND_DEF_STEREO_COUNT>
0

> <PUBCHEM_BOND_UDEF_STEREO_COUNT>
0

> <PUBCHEM_CACTVS_COMPLEXITY>
649

> <PUBCHEM_CACTVS_HBOND_ACCEPTOR>
10

> <PUBCHEM_CACTVS_HBOND_DONOR>
7

> <PUBCHEM_CACTVS_ROTATABLE_BOND>
4

> <PUBCHEM_CACTVS_SUBSKEYS>
AAADceB4PAAAAAAAAAAAAAAAAAAAAAAAAAA0YMEAAAAAAACRUAAAGgAACAAADBSgmAIwDoAABgCIAiDSCAACCAAkIAAIiAEGiMgNJzKGNRqCeSGlwBULuYfK7PzOIAABCAAIQABAAAIQABCAAAAAAAAAAA==

> <PUBCHEM_CACTVS_TAUTO_COUNT>
-1

> <PUBCHEM_CACTVS_TPSA>
177

> <PUBCHEM_COMPONENT_COUNT>
1

> <PUBCHEM_COMPOUND_CANONICALIZED>
1

> <PUBCHEM_COMPOUND_CID>
107905

> <PUBCHEM_COORDINATE_TYPE>
1
5
255

> <PUBCHEM_EXACT_MASS>
442.08999677

> <PUBCHEM_HEAVY_ATOM_COUNT>
32

> <PUBCHEM_ISOTOPIC_ATOM_COUNT>
0

> <PUBCHEM_IUPAC_CAS_NAME>
3,4,5-trihydroxybenzoic acid [(2R,3R)-2-(3,4-dihydroxyphenyl)-5,7-dihydroxy-3,4-dihydro-2H-1-benzopyran-3-yl] ester

> <PUBCHEM_IUPAC_INCHI>
InChI=1S/C22H18O10/c23-11-6-14(25)12-8-19(32-22(30)10-4-16(27)20(29)17(28)5-10)21(31-18(12)7-11)9-1-2-13(24)15(26)3-9/h1-7,19,21,23-29H,8H2/t19-,21-/m1/s1

> <PUBCHEM_IUPAC_INCHIKEY>
LSHVYAFMTMFKBA-TZIWHRDSSA-N

> <PUBCHEM_IUPAC_NAME>
[(2R,3R)-2-(3,4-dihydroxyphenyl)-5,7-dihydroxy-3,4-dihydro-2H-chromen-3-yl] 3,4,5-trihydroxybenzoate

> <PUBCHEM_IUPAC_NAME_MARKUP>
[(2<I>R</I>,3<I>R</I>)-2-(3,4-dihydroxyphenyl)-5,7-dihydroxy-3,4-dihydro-2<I>H</I>-chromen-3-yl] 3,4,5-trihydroxybenzoate

> <PUBCHEM_IUPAC_OPENEYE_NAME>
[(2R,3R)-2-(3,4-dihydroxyphenyl)-5,7-dihydroxy-chroman-3-yl] 3,4,5-trihydroxybenzoate

> <PUBCHEM_IUPAC_SYSTEMATIC_NAME>
[(2R,3R)-2-[3,4-bis(oxidanyl)phenyl]-5,7-bis(oxidanyl)-3,4-dihydro-2H-chromen-3-yl] 3,4,5-tris(oxidanyl)benzoate

> <PUBCHEM_IUPAC_TRADITIONAL_NAME>
3,4,5-trihydroxybenzoic acid [(2R,3R)-2-(3,4-dihydroxyphenyl)-5,7-dihydroxy-chroman-3-yl] ester

> <PUBCHEM_MOLECULAR_FORMULA>
C22H18O10

> <PUBCHEM_MOLECULAR_WEIGHT>
442.4

> <PUBCHEM_MONOISOTOPIC_WEIGHT>
442.08999677

> <PUBCHEM_OPENEYE_CAN_SMILES>
C1C(C(OC2=CC(=CC(=C21)O)O)C3=CC(=C(C=C3)O)O)OC(=O)C4=CC(=C(C(=C4)O)O)O

> <PUBCHEM_OPENEYE_ISO_SMILES>
C1[C@H]([C@H](OC2=CC(=CC(=C21)O)O)C3=CC(=C(C=C3)O)O)OC(=O)C4=CC(=C(C(=C4)O)O)O

> <PUBCHEM_TOTAL_CHARGE>
0

> <PUBCHEM_XLOGP3>
1.5

> <RelativeEnergy>
0

> <StereoisomerIndex>
1

> <TautomerIndex>
2

> <LibDock Warning>
no hit found

> <ErrorText>
LibDock failed

$$$$
114776
  SciTegic09112317153D

 52 55  0  0  0  0            999 V2000
   -3.3180   -0.8990    1.4790 O   0  0  0  1  0  0
   -1.7340   -3.5360   -0.5800 O   0  0  0  1  0  0
   -3.7580   -4.8850    1.3000 O   0  0  0  1  0  0
   -5.6700   -2.1100    0.1830 O   0  0  0  1  0  0
   -3.3660   -1.3410    4.2940 O   0  0  0  1  0  0
   -2.0160    0.1880   -1.8420 O   0  0  0  1  0  0
   -0.5780   -1.6560    2.3300 O   0  0  0  1  0  0
    2.3270    1.2610   -0.0920 O   0  0  0  1  0  0
   -0.2600    1.8470   -3.1190 O   0  0  0  1  0  0
    5.8810    4.9740   -3.3160 O   0  0  0  1  0  0
    7.6630    4.6060   -1.2720 O   0  0  0  1  0  0
   -2.4690   -3.0020    0.5100 C   0  0  2  1  0  0
   -3.8610   -3.6880    0.5500 C   0  0  2  1  0  0
   -2.6150   -1.4640    0.3690 C   0  0  2  1  0  0
   -4.9310   -2.7690    1.1960 C   0  0  1  1  0  0
   -4.2990   -1.7120    2.1310 C   0  0  1  1  0  0
   -1.3320   -0.7530    0.2450 C   0  0  0  1  0  0
   -3.6240   -2.3530    3.3480 C   0  0  0  1  0  0
   -1.0810    0.0650   -0.8850 C   0  0  0  1  0  0
   -0.3480   -0.8840    1.2560 C   0  0  0  1  0  0
    0.1570    0.7470   -0.9990 C   0  0  0  1  0  0
    0.8870   -0.2030    1.1400 C   0  0  0  1  0  0
    1.1440    0.6140    0.0150 C   0  0  0  1  0  0
    0.4560    1.6160   -2.1710 C   0  0  0  1  0  0
    2.6480    2.0570   -1.1340 C   0  0  0  1  0  0
    1.7860    2.2610   -2.1560 C   0  0  0  1  0  0
    3.9790    2.7340   -1.1710 C   0  0  0  1  0  0
    4.3200    3.5610   -2.2570 C   0  0  0  1  0  0
    4.8970    2.5460   -0.1220 C   0  0  0  1  0  0
    5.5710    4.2000   -2.2960 C   0  0  0  1  0  0
    6.1470    3.1840   -0.1590 C   0  0  0  1  0  0
    6.4880    4.0100   -1.2450 C   0  0  0  1  0  0
   -1.8940   -3.2220    1.4120 H   0  0  0  1  0  0
   -4.1860   -3.9920   -0.4490 H   0  0  0  1  0  0
   -3.2040   -1.2420   -0.5220 H   0  0  0  1  0  0
   -5.6710   -3.3530    1.7490 H   0  0  0  1  0  0
   -5.0650   -1.0310    2.5070 H   0  0  0  1  0  0
   -4.2810   -3.0890    3.8100 H   0  0  0  1  0  0
   -2.6720   -2.8050    3.0670 H   0  0  0  1  0  0
    1.6340   -0.3060    1.9120 H   0  0  0  1  0  0
    2.0540    2.9010   -2.9850 H   0  0  0  1  0  0
    3.6180    3.7100   -3.0660 H   0  0  0  1  0  0
    4.6440    1.9110    0.7170 H   0  0  0  1  0  0
    6.8480    3.0360    0.6480 H   0  0  0  1  0  0
   -2.3470   -4.0760   -1.1020 H   0  0  0  1  0  0
   -3.1290   -5.4600    0.8360 H   0  0  0  1  0  0
   -6.3640   -1.5970    0.6230 H   0  0  0  1  0  0
   -2.9380   -1.7620    5.0550 H   0  0  0  1  0  0
   -2.9450    0.2660   -1.5860 H   0  0  0  1  0  0
    0.1210   -2.2420    2.6500 H   0  0  0  1  0  0
    6.7440    5.4090   -3.3350 H   0  0  0  1  0  0
    8.2830    4.4660   -0.5430 H   0  0  0  1  0  0
  1 14  1  0
  1 16  1  0
  2 12  1  0
  2 45  1  0
  3 13  1  0
  3 46  1  0
  4 15  1  0
  4 47  1  0
  5 18  1  0
  5 48  1  0
  6 19  1  0
  6 49  1  0
  7 20  1  0
  7 50  1  0
  8 23  1  0
  8 25  1  0
  9 24  2  0
 10 30  1  0
 10 51  1  0
 11 32  1  0
 11 52  1  0
 12 13  1  0
 12 14  1  0
 12 33  1  0
 13 15  1  0
 13 34  1  0
 14 17  1  0
 14 35  1  0
 15 16  1  0
 15 36  1  0
 16 18  1  0
 16 37  1  0
 17 19  2  0
 17 20  1  0
 18 38  1  0
 18 39  1  0
 19 21  1  0
 20 22  2  0
 21 23  2  0
 21 24  1  0
 22 23  1  0
 22 40  1  0
 24 26  1  0
 25 26  2  0
 25 27  1  0
 26 41  1  0
 27 28  2  0
 27 29  1  0
 28 30  1  0
 28 42  1  0
 29 31  2  0
 29 43  1  0
 30 32  2  0
 31 32  1  0
 31 44  1  0
M  END
> <Name>
114776

> <AbsoluteEnergy>
56.1565

> <ConfNumber>
1

> <Ionization pH>
7.5

> <IonizationIndex>
1

> <NumberOfIonizations>
1

> <NumberOfStereoisomers>
1

> <NumberOfTautomers>
4

> <OBJECTID>
9223375163594309645

> <PUBCHEM_ATOM_DEF_STEREO_COUNT>
5

> <PUBCHEM_ATOM_UDEF_STEREO_COUNT>
0

> <PUBCHEM_BONDANNOTATIONS>
14  35  5
16  18  6
17  19  8
17  20  8
19  21  8
12  2  5
20  22  8
21  23  8
21  24  8
22  23  8
24  26  8
25  26  8
27  28  8
27  29  8
28  30  8
29  31  8
13  3  6
30  32  8
31  32  8
15  4  5
8  23  8
8  25  8

> <PUBCHEM_BOND_DEF_STEREO_COUNT>
0

> <PUBCHEM_BOND_UDEF_STEREO_COUNT>
0

> <PUBCHEM_CACTVS_COMPLEXITY>
729

> <PUBCHEM_CACTVS_HBOND_ACCEPTOR>
11

> <PUBCHEM_CACTVS_HBOND_DONOR>
8

> <PUBCHEM_CACTVS_ROTATABLE_BOND>
3

> <PUBCHEM_CACTVS_SUBSKEYS>
AAADceB4PAAAAAAAAAAAAAAAAAAAAAAAAAA0YIEAAAAAAACBQAAAGgAACAAADBSgmAIwBoAABgCIAqBSAAACCAAkIAAIiAEGiMgNNzaGNRqCeWGl4BULuQfI7PzOIAADCAAIQABAAAYQABCAAAAAAAAAAA==

> <PUBCHEM_CACTVS_TAUTO_COUNT>
162

> <PUBCHEM_CACTVS_TPSA>
197

> <PUBCHEM_COMPONENT_COUNT>
1

> <PUBCHEM_COMPOUND_CANONICALIZED>
1

> <PUBCHEM_COMPOUND_CID>
114776

> <PUBCHEM_COORDINATE_TYPE>
1
5
255

> <PUBCHEM_EXACT_MASS>
448.10056145

> <PUBCHEM_HEAVY_ATOM_COUNT>
32

> <PUBCHEM_ISOTOPIC_ATOM_COUNT>
0

> <PUBCHEM_IUPAC_CAS_NAME>
2-(3,4-dihydroxyphenyl)-5,7-dihydroxy-6-[(2S,3R,4R,5S,6R)-3,4,5-trihydroxy-6-(hydroxymethyl)-2-oxanyl]-1-benzopyran-4-one

> <PUBCHEM_IUPAC_INCHI>
InChI=1S/C21H20O11/c22-6-14-17(27)19(29)20(30)21(32-14)16-11(26)5-13-15(18(16)28)10(25)4-12(31-13)7-1-2-8(23)9(24)3-7/h1-5,14,17,19-24,26-30H,6H2/t14-,17-,19+,20-,21+/m1/s1

> <PUBCHEM_IUPAC_INCHIKEY>
ODBRNZZJSYPIDI-VJXVFPJBSA-N

> <PUBCHEM_IUPAC_NAME>
2-(3,4-dihydroxyphenyl)-5,7-dihydroxy-6-[(2S,3R,4R,5S,6R)-3,4,5-trihydroxy-6-(hydroxymethyl)oxan-2-yl]chromen-4-one

> <PUBCHEM_IUPAC_NAME_MARKUP>
2-(3,4-dihydroxyphenyl)-5,7-dihydroxy-6-[(2<I>S</I>,3<I>R</I>,4<I>R</I>,5<I>S</I>,6<I>R</I>)-3,4,5-trihydroxy-6-(hydroxymethyl)oxan-2-yl]chromen-4-one

> <PUBCHEM_IUPAC_OPENEYE_NAME>
2-(3,4-dihydroxyphenyl)-5,7-dihydroxy-6-[(2S,3R,4R,5S,6R)-3,4,5-trihydroxy-6-(hydroxymethyl)tetrahydropyran-2-yl]chromen-4-one

> <PUBCHEM_IUPAC_SYSTEMATIC_NAME>
2-[3,4-bis(oxidanyl)phenyl]-6-[(2S,3R,4R,5S,6R)-6-(hydroxymethyl)-3,4,5-tris(oxidanyl)oxan-2-yl]-5,7-bis(oxidanyl)chromen-4-one

> <PUBCHEM_IUPAC_TRADITIONAL_NAME>
2-(3,4-dihydroxyphenyl)-5,7-dihydroxy-6-[(2S,3R,4R,5S,6R)-3,4,5-trihydroxy-6-methylol-tetrahydropyran-2-yl]chromone

> <PUBCHEM_MOLECULAR_FORMULA>
C21H20O11

> <PUBCHEM_MOLECULAR_WEIGHT>
448.4

> <PUBCHEM_MONOISOTOPIC_WEIGHT>
448.10056145

> <PUBCHEM_OPENEYE_CAN_SMILES>
C1=CC(=C(C=C1C2=CC(=O)C3=C(O2)C=C(C(=C3O)C4C(C(C(C(O4)CO)O)O)O)O)O)O

> <PUBCHEM_OPENEYE_ISO_SMILES>
C1=CC(=C(C=C1C2=CC(=O)C3=C(O2)C=C(C(=C3O)[C@H]4[C@@H]([C@H]([C@@H]([C@H](O4)CO)O)O)O)O)O)O

> <PUBCHEM_TOTAL_CHARGE>
0

> <PUBCHEM_XLOGP3_AA>
-0.2

> <RelativeEnergy>
0

> <StereoisomerIndex>
1

> <TautomerIndex>
1

> <LibDock Warning>
no hit found

> <ErrorText>
LibDock failed

$$$$
114776
  SciTegic09112317153D

 52 55  0  0  0  0            999 V2000
   -1.4670    3.2840    0.6530 O   0  0  0  1  0  0
   -2.4320    1.8660   -2.6100 O   0  0  0  1  0  0
   -4.8990    3.2850   -1.4240 O   0  0  0  1  0  0
   -2.3840    5.7010   -0.7670 O   0  0  0  1  0  0
   -4.6560    3.7720    2.2290 O   0  0  0  1  0  0
   -1.7690    0.3800    0.7790 O   0  0  0  1  0  0
    1.1900    2.7450   -1.9330 O   0  0  0  1  0  0
    2.4810   -1.5670   -0.4390 O   0  0  0  1  0  0
   -1.1170   -2.0510    1.6280 O   0  0  0  1  0  0
    4.4360   -6.3780    2.5330 O   0  0  0  1  0  0
    6.0230   -6.8270    0.3510 O   0  0  0  1  0  0
   -2.6460    2.4210   -1.3240 C   0  0  2  1  0  0
   -3.5400    3.6820   -1.4620 C   0  0  2  1  0  0
   -1.2900    2.7730   -0.6710 C   0  0  2  1  0  0
   -3.2730    4.6950   -0.3160 C   0  0  1  1  0  0
   -2.6660    4.0100    0.9340 C   0  0  1  1  0  0
   -0.3290    1.6120   -0.5820 C   0  0  0  1  0  0
   -3.6500    3.0270    1.5810 C   0  0  0  1  0  0
   -0.7050    0.4190    0.2060 C   0  0  0  1  0  0
    0.8570    1.6710   -1.2220 C   0  0  0  1  0  0
    0.2530   -0.7110    0.2730 C   0  0  0  1  0  0
    1.8080    0.5380   -1.1430 C   0  0  0  1  0  0
    1.5460   -0.5880   -0.4490 C   0  0  0  1  0  0
    0.0130   -1.8480    0.9520 C   0  0  0  1  0  0
    2.2050   -2.6940    0.2570 C   0  0  0  1  0  0
    1.0510   -2.8870    0.9350 C   0  0  0  1  0  0
    3.2180   -3.7900    0.2800 C   0  0  0  1  0  0
    3.3580   -4.5930    1.4270 C   0  0  0  1  0  0
    4.0330   -4.0230   -0.8390 C   0  0  0  1  0  0
    4.3090   -5.6290    1.4560 C   0  0  0  1  0  0
    4.9860   -5.0570   -0.8120 C   0  0  0  1  0  0
    5.1270   -5.8610    0.3320 C   0  0  0  1  0  0
   -3.1340    1.6480   -0.7260 H   0  0  0  1  0  0
   -3.4000    4.1690   -2.4310 H   0  0  0  1  0  0
   -0.8120    3.5650   -1.2510 H   0  0  0  1  0  0
   -4.1830    5.2270   -0.0390 H   0  0  0  1  0  0
   -2.4110    4.7560    1.6880 H   0  0  0  1  0  0
   -4.1230    2.4020    0.8230 H   0  0  0  1  0  0
   -3.1460    2.4160    2.3290 H   0  0  0  1  0  0
    2.7500    0.6230   -1.6650 H   0  0  0  1  0  0
    0.8690   -3.8050    1.4770 H   0  0  0  1  0  0
    2.7330   -4.4210    2.2920 H   0  0  0  1  0  0
    3.9340   -3.4120   -1.7240 H   0  0  0  1  0  0
    5.6120   -5.2310   -1.6750 H   0  0  0  1  0  0
   -2.4650    0.9000   -2.5130 H   0  0  0  1  0  0
   -5.0840    2.8220   -2.2560 H   0  0  0  1  0  0
   -2.3920    6.4090   -0.1040 H   0  0  0  1  0  0
   -5.2670    3.1360    2.6310 H   0  0  0  1  0  0
    0.7650    2.8980   -2.7870 H   0  0  0  1  0  0
    5.0910   -7.0860    2.5430 H   0  0  0  1  0  0
    6.5750   -6.9730   -0.4280 H   0  0  0  1  0  0
   -1.2400   -2.8850    2.1000 H   0  0  0  1  0  0
  1 14  1  0
  1 16  1  0
  2 12  1  0
  2 45  1  0
  3 13  1  0
  3 46  1  0
  4 15  1  0
  4 47  1  0
  5 18  1  0
  5 48  1  0
  6 19  2  0
  7 20  1  0
  7 49  1  0
  8 23  1  0
  8 25  1  0
  9 24  1  0
  9 52  1  0
 10 30  1  0
 10 50  1  0
 11 32  1  0
 11 51  1  0
 12 13  1  0
 12 14  1  0
 12 33  1  0
 13 15  1  0
 13 34  1  0
 14 17  1  0
 14 35  1  0
 15 16  1  0
 15 36  1  0
 16 18  1  0
 16 37  1  0
 17 19  1  0
 17 20  2  0
 18 38  1  0
 18 39  1  0
 19 21  1  0
 20 22  1  0
 21 23  1  0
 21 24  2  0
 22 23  2  0
 22 40  1  0
 24 26  1  0
 25 26  2  0
 25 27  1  0
 26 41  1  0
 27 28  2  0
 27 29  1  0
 28 30  1  0
 28 42  1  0
 29 31  2  0
 29 43  1  0
 30 32  2  0
 31 32  1  0
 31 44  1  0
M  END
> <Name>
114776

> <AbsoluteEnergy>
38.5275

> <ConfNumber>
1

> <Ionization pH>
7.5

> <IonizationIndex>
1

> <NumberOfIonizations>
1

> <NumberOfStereoisomers>
1

> <NumberOfTautomers>
4

> <OBJECTID>
9223375167889276941

> <PUBCHEM_ATOM_DEF_STEREO_COUNT>
5

> <PUBCHEM_ATOM_UDEF_STEREO_COUNT>
0

> <PUBCHEM_BONDANNOTATIONS>
14  35  5
16  18  6
17  19  8
17  20  8
19  21  8
12  2  5
20  22  8
21  23  8
21  24  8
22  23  8
24  26  8
25  26  8
27  28  8
27  29  8
28  30  8
29  31  8
13  3  6
30  32  8
31  32  8
15  4  5
8  23  8
8  25  8

> <PUBCHEM_BOND_DEF_STEREO_COUNT>
0

> <PUBCHEM_BOND_UDEF_STEREO_COUNT>
0

> <PUBCHEM_CACTVS_COMPLEXITY>
729

> <PUBCHEM_CACTVS_HBOND_ACCEPTOR>
11

> <PUBCHEM_CACTVS_HBOND_DONOR>
8

> <PUBCHEM_CACTVS_ROTATABLE_BOND>
3

> <PUBCHEM_CACTVS_SUBSKEYS>
AAADceB4PAAAAAAAAAAAAAAAAAAAAAAAAAA0YIEAAAAAAACBQAAAGgAACAAADBSgmAIwBoAABgCIAqBSAAACCAAkIAAIiAEGiMgNNzaGNRqCeWGl4BULuQfI7PzOIAADCAAIQABAAAYQABCAAAAAAAAAAA==

> <PUBCHEM_CACTVS_TAUTO_COUNT>
162

> <PUBCHEM_CACTVS_TPSA>
197

> <PUBCHEM_COMPONENT_COUNT>
1

> <PUBCHEM_COMPOUND_CANONICALIZED>
1

> <PUBCHEM_COMPOUND_CID>
114776

> <PUBCHEM_COORDINATE_TYPE>
1
5
255

> <PUBCHEM_EXACT_MASS>
448.10056145

> <PUBCHEM_HEAVY_ATOM_COUNT>
32

> <PUBCHEM_ISOTOPIC_ATOM_COUNT>
0

> <PUBCHEM_IUPAC_CAS_NAME>
2-(3,4-dihydroxyphenyl)-5,7-dihydroxy-6-[(2S,3R,4R,5S,6R)-3,4,5-trihydroxy-6-(hydroxymethyl)-2-oxanyl]-1-benzopyran-4-one

> <PUBCHEM_IUPAC_INCHI>
InChI=1S/C21H20O11/c22-6-14-17(27)19(29)20(30)21(32-14)16-11(26)5-13-15(18(16)28)10(25)4-12(31-13)7-1-2-8(23)9(24)3-7/h1-5,14,17,19-24,26-30H,6H2/t14-,17-,19+,20-,21+/m1/s1

> <PUBCHEM_IUPAC_INCHIKEY>
ODBRNZZJSYPIDI-VJXVFPJBSA-N

> <PUBCHEM_IUPAC_NAME>
2-(3,4-dihydroxyphenyl)-5,7-dihydroxy-6-[(2S,3R,4R,5S,6R)-3,4,5-trihydroxy-6-(hydroxymethyl)oxan-2-yl]chromen-4-one

> <PUBCHEM_IUPAC_NAME_MARKUP>
2-(3,4-dihydroxyphenyl)-5,7-dihydroxy-6-[(2<I>S</I>,3<I>R</I>,4<I>R</I>,5<I>S</I>,6<I>R</I>)-3,4,5-trihydroxy-6-(hydroxymethyl)oxan-2-yl]chromen-4-one

> <PUBCHEM_IUPAC_OPENEYE_NAME>
2-(3,4-dihydroxyphenyl)-5,7-dihydroxy-6-[(2S,3R,4R,5S,6R)-3,4,5-trihydroxy-6-(hydroxymethyl)tetrahydropyran-2-yl]chromen-4-one

> <PUBCHEM_IUPAC_SYSTEMATIC_NAME>
2-[3,4-bis(oxidanyl)phenyl]-6-[(2S,3R,4R,5S,6R)-6-(hydroxymethyl)-3,4,5-tris(oxidanyl)oxan-2-yl]-5,7-bis(oxidanyl)chromen-4-one

> <PUBCHEM_IUPAC_TRADITIONAL_NAME>
2-(3,4-dihydroxyphenyl)-5,7-dihydroxy-6-[(2S,3R,4R,5S,6R)-3,4,5-trihydroxy-6-methylol-tetrahydropyran-2-yl]chromone

> <PUBCHEM_MOLECULAR_FORMULA>
C21H20O11

> <PUBCHEM_MOLECULAR_WEIGHT>
448.4

> <PUBCHEM_MONOISOTOPIC_WEIGHT>
448.10056145

> <PUBCHEM_OPENEYE_CAN_SMILES>
C1=CC(=C(C=C1C2=CC(=O)C3=C(O2)C=C(C(=C3O)C4C(C(C(C(O4)CO)O)O)O)O)O)O

> <PUBCHEM_OPENEYE_ISO_SMILES>
C1=CC(=C(C=C1C2=CC(=O)C3=C(O2)C=C(C(=C3O)[C@H]4[C@@H]([C@H]([C@@H]([C@H](O4)CO)O)O)O)O)O)O

> <PUBCHEM_TOTAL_CHARGE>
0

> <PUBCHEM_XLOGP3_AA>
-0.2

> <RelativeEnergy>
0

> <StereoisomerIndex>
1

> <TautomerIndex>
2

> <LibDock Warning>
no hit found

> <ErrorText>
LibDock failed

$$$$
114776
  SciTegic09112317153D

 52 55  0  0  0  0            999 V2000
   -3.4260   -0.5350    1.1590 O   0  0  0  1  0  0
   -3.0520    0.3450   -2.4030 O   0  0  0  1  0  0
   -5.3660   -1.6770   -2.1660 O   0  0  0  1  0  0
   -6.1220    0.4930    0.5400 O   0  0  0  1  0  0
   -5.3450   -3.5460    0.5870 O   0  0  0  1  0  0
   -1.1590   -1.6870   -0.5720 O   0  0  0  1  0  0
   -1.8480    2.7070    0.8150 O   0  0  0  1  0  0
    2.5840    1.3700    0.4630 O   0  0  0  1  0  0
    1.3490   -2.4140   -0.8070 O   0  0  0  1  0  0
    7.1820    3.5380    0.3860 O   0  0  0  1  0  0
    8.9740    1.4790    0.5950 O   0  0  0  1  0  0
   -3.4930   -0.4260   -1.2980 C   0  0  2  1  0  0
   -5.0370   -0.5590   -1.3610 C   0  0  2  1  0  0
   -3.0490    0.2470    0.0220 C   0  0  2  1  0  0
   -5.6470   -0.7500    0.0530 C   0  0  1  1  0  0
   -4.6170   -1.3240    1.0580 C   0  0  1  1  0  0
   -1.5640    0.4910    0.1170 C   0  0  0  1  0  0
   -4.1870   -2.7470    0.6860 C   0  0  0  1  0  0
   -0.6950   -0.4980   -0.1880 C   0  0  0  1  0  0
   -1.0740    1.8170    0.5480 C   0  0  0  1  0  0
    0.7700   -0.2520   -0.0960 C   0  0  0  1  0  0
    0.3770    2.0480    0.6450 C   0  0  0  1  0  0
    1.2670    1.0810    0.3470 C   0  0  0  1  0  0
    1.6860   -1.1920   -0.3960 C   0  0  0  1  0  0
    3.4690    0.3930    0.1530 C   0  0  0  1  0  0
    3.1050   -0.8410   -0.2620 C   0  0  0  1  0  0
    4.9310    0.6830    0.2700 C   0  0  0  1  0  0
    5.3880    2.0130    0.2740 C   0  0  0  1  0  0
    5.8520   -0.3740    0.3780 C   0  0  0  1  0  0
    6.7620    2.2890    0.3840 C   0  0  0  1  0  0
    7.2250   -0.0990    0.4890 C   0  0  0  1  0  0
    7.6840    1.2310    0.4920 C   0  0  0  1  0  0
   -3.0040   -1.3970   -1.3790 H   0  0  0  1  0  0
   -5.4940    0.3030   -1.8500 H   0  0  0  1  0  0
   -3.5580    1.2060    0.1180 H   0  0  0  1  0  0
   -6.5280   -1.3960    0.0210 H   0  0  0  1  0  0
   -5.0470   -1.3680    2.0600 H   0  0  0  1  0  0
   -3.6850   -2.7560   -0.2820 H   0  0  0  1  0  0
   -3.5470   -3.1720    1.4600 H   0  0  0  1  0  0
    0.7350    3.0160    0.9660 H   0  0  0  1  0  0
    3.8430   -1.5930   -0.5020 H   0  0  0  1  0  0
    4.6850    2.8280    0.1900 H   0  0  0  1  0  0
    5.5100   -1.4000    0.3760 H   0  0  0  1  0  0
    7.9300   -0.9130    0.5720 H   0  0  0  1  0  0
   -3.1560   -0.2050   -3.1950 H   0  0  0  1  0  0
   -5.5720   -1.3400   -3.0520 H   0  0  0  1  0  0
   -6.9560    0.3180    1.0070 H   0  0  0  1  0  0
   -5.0550   -4.4420    0.3500 H   0  0  0  1  0  0
   -0.6950   -2.4880   -0.2950 H   0  0  0  1  0  0
    8.1280    3.7170    0.4620 H   0  0  0  1  0  0
    9.5930    0.7430    0.6700 H   0  0  0  1  0  0
    1.2190   -2.5760   -1.7510 H   0  0  0  1  0  0
  1 14  1  0
  1 16  1  0
  2 12  1  0
  2 45  1  0
  3 13  1  0
  3 46  1  0
  4 15  1  0
  4 47  1  0
  5 18  1  0
  5 48  1  0
  6 19  1  0
  6 49  1  0
  7 20  2  0
  8 23  1  0
  8 25  1  0
  9 24  1  0
  9 52  1  0
 10 30  1  0
 10 50  1  0
 11 32  1  0
 11 51  1  0
 12 13  1  0
 12 14  1  0
 12 33  1  0
 13 15  1  0
 13 34  1  0
 14 17  1  0
 14 35  1  0
 15 16  1  0
 15 36  1  0
 16 18  1  0
 16 37  1  0
 17 19  2  0
 17 20  1  0
 18 38  1  0
 18 39  1  0
 19 21  1  0
 20 22  1  0
 21 23  1  0
 21 24  2  0
 22 23  2  0
 22 40  1  0
 24 26  1  0
 25 26  2  0
 25 27  1  0
 26 41  1  0
 27 28  2  0
 27 29  1  0
 28 30  1  0
 28 42  1  0
 29 31  2  0
 29 43  1  0
 30 32  2  0
 31 32  1  0
 31 44  1  0
M  END
> <Name>
114776

> <AbsoluteEnergy>
49.7315

> <ConfNumber>
1

> <Ionization pH>
7.5

> <IonizationIndex>
1

> <NumberOfIonizations>
1

> <NumberOfStereoisomers>
1

> <NumberOfTautomers>
4

> <OBJECTID>
9223375172184244237

> <PUBCHEM_ATOM_DEF_STEREO_COUNT>
5

> <PUBCHEM_ATOM_UDEF_STEREO_COUNT>
0

> <PUBCHEM_BONDANNOTATIONS>
14  35  5
16  18  6
17  19  8
17  20  8
19  21  8
12  2  5
20  22  8
21  23  8
21  24  8
22  23  8
24  26  8
25  26  8
27  28  8
27  29  8
28  30  8
29  31  8
13  3  6
30  32  8
31  32  8
15  4  5
8  23  8
8  25  8

> <PUBCHEM_BOND_DEF_STEREO_COUNT>
0

> <PUBCHEM_BOND_UDEF_STEREO_COUNT>
0

> <PUBCHEM_CACTVS_COMPLEXITY>
729

> <PUBCHEM_CACTVS_HBOND_ACCEPTOR>
11

> <PUBCHEM_CACTVS_HBOND_DONOR>
8

> <PUBCHEM_CACTVS_ROTATABLE_BOND>
3

> <PUBCHEM_CACTVS_SUBSKEYS>
AAADceB4PAAAAAAAAAAAAAAAAAAAAAAAAAA0YIEAAAAAAACBQAAAGgAACAAADBSgmAIwBoAABgCIAqBSAAACCAAkIAAIiAEGiMgNNzaGNRqCeWGl4BULuQfI7PzOIAADCAAIQABAAAYQABCAAAAAAAAAAA==

> <PUBCHEM_CACTVS_TAUTO_COUNT>
162

> <PUBCHEM_CACTVS_TPSA>
197

> <PUBCHEM_COMPONENT_COUNT>
1

> <PUBCHEM_COMPOUND_CANONICALIZED>
1

> <PUBCHEM_COMPOUND_CID>
114776

> <PUBCHEM_COORDINATE_TYPE>
1
5
255

> <PUBCHEM_EXACT_MASS>
448.10056145

> <PUBCHEM_HEAVY_ATOM_COUNT>
32

> <PUBCHEM_ISOTOPIC_ATOM_COUNT>
0

> <PUBCHEM_IUPAC_CAS_NAME>
2-(3,4-dihydroxyphenyl)-5,7-dihydroxy-6-[(2S,3R,4R,5S,6R)-3,4,5-trihydroxy-6-(hydroxymethyl)-2-oxanyl]-1-benzopyran-4-one

> <PUBCHEM_IUPAC_INCHI>
InChI=1S/C21H20O11/c22-6-14-17(27)19(29)20(30)21(32-14)16-11(26)5-13-15(18(16)28)10(25)4-12(31-13)7-1-2-8(23)9(24)3-7/h1-5,14,17,19-24,26-30H,6H2/t14-,17-,19+,20-,21+/m1/s1

> <PUBCHEM_IUPAC_INCHIKEY>
ODBRNZZJSYPIDI-VJXVFPJBSA-N

> <PUBCHEM_IUPAC_NAME>
2-(3,4-dihydroxyphenyl)-5,7-dihydroxy-6-[(2S,3R,4R,5S,6R)-3,4,5-trihydroxy-6-(hydroxymethyl)oxan-2-yl]chromen-4-one

> <PUBCHEM_IUPAC_NAME_MARKUP>
2-(3,4-dihydroxyphenyl)-5,7-dihydroxy-6-[(2<I>S</I>,3<I>R</I>,4<I>R</I>,5<I>S</I>,6<I>R</I>)-3,4,5-trihydroxy-6-(hydroxymethyl)oxan-2-yl]chromen-4-one

> <PUBCHEM_IUPAC_OPENEYE_NAME>
2-(3,4-dihydroxyphenyl)-5,7-dihydroxy-6-[(2S,3R,4R,5S,6R)-3,4,5-trihydroxy-6-(hydroxymethyl)tetrahydropyran-2-yl]chromen-4-one

> <PUBCHEM_IUPAC_SYSTEMATIC_NAME>
2-[3,4-bis(oxidanyl)phenyl]-6-[(2S,3R,4R,5S,6R)-6-(hydroxymethyl)-3,4,5-tris(oxidanyl)oxan-2-yl]-5,7-bis(oxidanyl)chromen-4-one

> <PUBCHEM_IUPAC_TRADITIONAL_NAME>
2-(3,4-dihydroxyphenyl)-5,7-dihydroxy-6-[(2S,3R,4R,5S,6R)-3,4,5-trihydroxy-6-methylol-tetrahydropyran-2-yl]chromone

> <PUBCHEM_MOLECULAR_FORMULA>
C21H20O11

> <PUBCHEM_MOLECULAR_WEIGHT>
448.4

> <PUBCHEM_MONOISOTOPIC_WEIGHT>
448.10056145

> <PUBCHEM_OPENEYE_CAN_SMILES>
C1=CC(=C(C=C1C2=CC(=O)C3=C(O2)C=C(C(=C3O)C4C(C(C(C(O4)CO)O)O)O)O)O)O

> <PUBCHEM_OPENEYE_ISO_SMILES>
C1=CC(=C(C=C1C2=CC(=O)C3=C(O2)C=C(C(=C3O)[C@H]4[C@@H]([C@H]([C@@H]([C@H](O4)CO)O)O)O)O)O)O

> <PUBCHEM_TOTAL_CHARGE>
0

> <PUBCHEM_XLOGP3_AA>
-0.2

> <RelativeEnergy>
0

> <StereoisomerIndex>
1

> <TautomerIndex>
3

> <LibDock Warning>
no hit found

> <ErrorText>
LibDock failed

$$$$
114776
  SciTegic09112317153D

 52 55  0  0  0  0            999 V2000
    2.7460   -1.9290    0.4230 O   0  0  0  1  0  0
    2.7530    0.2360   -2.5800 O   0  0  0  1  0  0
    5.6260    0.1090   -1.4910 O   0  0  0  1  0  0
    4.7100   -3.3130   -1.2830 O   0  0  0  1  0  0
    3.9570   -0.8550    2.7450 O   0  0  0  1  0  0
    1.6940    0.8310    0.8120 O   0  0  0  1  0  0
    0.0450   -2.6350   -2.0380 O   0  0  0  1  0  0
   -3.0130    0.4240   -0.0380 O   0  0  0  1  0  0
   -0.0520    2.5840    1.9400 O   0  0  0  1  0  0
   -7.8940    0.5340   -0.3920 O   0  0  0  1  0  0
   -8.6300    2.6390    1.2420 O   0  0  0  1  0  0
    3.2520   -0.3110   -1.3690 C   0  0  2  1  0  0
    4.6570   -0.9120   -1.6400 C   0  0  2  1  0  0
    2.2840   -1.3940   -0.8200 C   0  0  2  1  0  0
    4.9810   -2.0710   -0.6580 C   0  0  1  1  0  0
    4.1580   -1.9700    0.6490 C   0  0  1  1  0  0
    0.9070   -0.9130   -0.6160 C   0  0  0  1  0  0
    4.5250   -0.7260    1.4630 C   0  0  0  1  0  0
    0.6650    0.2100    0.2170 C   0  0  0  1  0  0
   -0.1740   -1.5740   -1.2480 C   0  0  0  1  0  0
   -0.6650    0.6680    0.4130 C   0  0  0  1  0  0
   -1.4980   -1.1150   -1.0510 C   0  0  0  1  0  0
   -1.7470    0.0020   -0.2200 C   0  0  0  1  0  0
   -0.9480    1.8470    1.2830 C   0  0  0  1  0  0
   -3.3420    1.4720    0.7440 C   0  0  0  1  0  0
   -2.2420    2.2120    1.4220 C   0  0  0  1  0  0
   -4.6530    1.7950    0.8760 C   0  0  0  1  0  0
   -5.6860    1.0010    0.1580 C   0  0  0  1  0  0
   -5.1310    2.9220    1.7190 C   0  0  0  1  0  0
   -7.0040    1.2720    0.2680 C   0  0  0  1  0  0
   -6.4450    3.1970    1.8340 C   0  0  0  1  0  0
   -7.4530    2.3890    1.1240 C   0  0  0  1  0  0
    3.3040    0.5110   -0.6520 H   0  0  0  1  0  0
    4.7520   -1.2610   -2.6700 H   0  0  0  1  0  0
    2.2430   -2.2250   -1.5270 H   0  0  0  1  0  0
    6.0460   -2.1010   -0.4220 H   0  0  0  1  0  0
    4.3470   -2.8400    1.2800 H   0  0  0  1  0  0
    5.6080   -0.6470    1.5770 H   0  0  0  1  0  0
    4.1180    0.1720    0.9970 H   0  0  0  1  0  0
   -2.3220   -1.6210   -1.5340 H   0  0  0  1  0  0
   -2.4450    3.0670    2.0480 H   0  0  0  1  0  0
   -5.3920    0.1780   -0.4780 H   0  0  0  1  0  0
   -4.4540    3.5580    2.2670 H   0  0  0  1  0  0
   -6.7650    4.0200    2.4540 H   0  0  0  1  0  0
    2.0360    0.8460   -2.3440 H   0  0  0  1  0  0
    5.5110    0.7230   -2.2330 H   0  0  0  1  0  0
    5.0740   -4.0060   -0.7090 H   0  0  0  1  0  0
    4.1990   -0.0590    3.2470 H   0  0  0  1  0  0
    2.1150    1.5780    0.3690 H   0  0  0  1  0  0
    0.7750   -2.6110   -2.6710 H   0  0  0  1  0  0
   -8.8340    0.7380   -0.3030 H   0  0  0  1  0  0
    0.8870    2.4890    1.7260 H   0  0  0  1  0  0
  1 14  1  0
  1 16  1  0
  2 12  1  0
  2 45  1  0
  3 13  1  0
  3 46  1  0
  4 15  1  0
  4 47  1  0
  5 18  1  0
  5 48  1  0
  6 19  1  0
  6 49  1  0
  7 20  1  0
  7 50  1  0
  8 23  1  0
  8 25  1  0
  9 24  1  0
  9 52  1  0
 10 30  1  0
 10 51  1  0
 11 32  2  0
 12 13  1  0
 12 14  1  0
 12 33  1  0
 13 15  1  0
 13 34  1  0
 14 17  1  0
 14 35  1  0
 15 16  1  0
 15 36  1  0
 16 18  1  0
 16 37  1  0
 17 19  2  0
 17 20  1  0
 18 38  1  0
 18 39  1  0
 19 21  1  0
 20 22  2  0
 21 23  2  0
 21 24  1  0
 22 23  1  0
 22 40  1  0
 24 26  2  0
 25 26  1  0
 25 27  2  0
 26 41  1  0
 27 28  1  0
 27 29  1  0
 28 30  2  0
 28 42  1  0
 29 31  2  0
 29 43  1  0
 30 32  1  0
 31 32  1  0
 31 44  1  0
M  END
> <Name>
114776

> <AbsoluteEnergy>
48.6308

> <ConfNumber>
1

> <Ionization pH>
7.5

> <IonizationIndex>
1

> <NumberOfIonizations>
1

> <NumberOfStereoisomers>
1

> <NumberOfTautomers>
4

> <OBJECTID>
9223375176479211533

> <PUBCHEM_ATOM_DEF_STEREO_COUNT>
5

> <PUBCHEM_ATOM_UDEF_STEREO_COUNT>
0

> <PUBCHEM_BONDANNOTATIONS>
14  35  5
16  18  6
17  19  8
17  20  8
19  21  8
12  2  5
20  22  8
21  23  8
21  24  8
22  23  8
24  26  8
25  26  8
27  28  8
27  29  8
28  30  8
29  31  8
13  3  6
30  32  8
31  32  8
15  4  5
8  23  8
8  25  8

> <PUBCHEM_BOND_DEF_STEREO_COUNT>
0

> <PUBCHEM_BOND_UDEF_STEREO_COUNT>
0

> <PUBCHEM_CACTVS_COMPLEXITY>
729

> <PUBCHEM_CACTVS_HBOND_ACCEPTOR>
11

> <PUBCHEM_CACTVS_HBOND_DONOR>
8

> <PUBCHEM_CACTVS_ROTATABLE_BOND>
3

> <PUBCHEM_CACTVS_SUBSKEYS>
AAADceB4PAAAAAAAAAAAAAAAAAAAAAAAAAA0YIEAAAAAAACBQAAAGgAACAAADBSgmAIwBoAABgCIAqBSAAACCAAkIAAIiAEGiMgNNzaGNRqCeWGl4BULuQfI7PzOIAADCAAIQABAAAYQABCAAAAAAAAAAA==

> <PUBCHEM_CACTVS_TAUTO_COUNT>
162

> <PUBCHEM_CACTVS_TPSA>
197

> <PUBCHEM_COMPONENT_COUNT>
1

> <PUBCHEM_COMPOUND_CANONICALIZED>
1

> <PUBCHEM_COMPOUND_CID>
114776

> <PUBCHEM_COORDINATE_TYPE>
1
5
255

> <PUBCHEM_EXACT_MASS>
448.10056145

> <PUBCHEM_HEAVY_ATOM_COUNT>
32

> <PUBCHEM_ISOTOPIC_ATOM_COUNT>
0

> <PUBCHEM_IUPAC_CAS_NAME>
2-(3,4-dihydroxyphenyl)-5,7-dihydroxy-6-[(2S,3R,4R,5S,6R)-3,4,5-trihydroxy-6-(hydroxymethyl)-2-oxanyl]-1-benzopyran-4-one

> <PUBCHEM_IUPAC_INCHI>
InChI=1S/C21H20O11/c22-6-14-17(27)19(29)20(30)21(32-14)16-11(26)5-13-15(18(16)28)10(25)4-12(31-13)7-1-2-8(23)9(24)3-7/h1-5,14,17,19-24,26-30H,6H2/t14-,17-,19+,20-,21+/m1/s1

> <PUBCHEM_IUPAC_INCHIKEY>
ODBRNZZJSYPIDI-VJXVFPJBSA-N

> <PUBCHEM_IUPAC_NAME>
2-(3,4-dihydroxyphenyl)-5,7-dihydroxy-6-[(2S,3R,4R,5S,6R)-3,4,5-trihydroxy-6-(hydroxymethyl)oxan-2-yl]chromen-4-one

> <PUBCHEM_IUPAC_NAME_MARKUP>
2-(3,4-dihydroxyphenyl)-5,7-dihydroxy-6-[(2<I>S</I>,3<I>R</I>,4<I>R</I>,5<I>S</I>,6<I>R</I>)-3,4,5-trihydroxy-6-(hydroxymethyl)oxan-2-yl]chromen-4-one

> <PUBCHEM_IUPAC_OPENEYE_NAME>
2-(3,4-dihydroxyphenyl)-5,7-dihydroxy-6-[(2S,3R,4R,5S,6R)-3,4,5-trihydroxy-6-(hydroxymethyl)tetrahydropyran-2-yl]chromen-4-one

> <PUBCHEM_IUPAC_SYSTEMATIC_NAME>
2-[3,4-bis(oxidanyl)phenyl]-6-[(2S,3R,4R,5S,6R)-6-(hydroxymethyl)-3,4,5-tris(oxidanyl)oxan-2-yl]-5,7-bis(oxidanyl)chromen-4-one

> <PUBCHEM_IUPAC_TRADITIONAL_NAME>
2-(3,4-dihydroxyphenyl)-5,7-dihydroxy-6-[(2S,3R,4R,5S,6R)-3,4,5-trihydroxy-6-methylol-tetrahydropyran-2-yl]chromone

> <PUBCHEM_MOLECULAR_FORMULA>
C21H20O11

> <PUBCHEM_MOLECULAR_WEIGHT>
448.4

> <PUBCHEM_MONOISOTOPIC_WEIGHT>
448.10056145

> <PUBCHEM_OPENEYE_CAN_SMILES>
C1=CC(=C(C=C1C2=CC(=O)C3=C(O2)C=C(C(=C3O)C4C(C(C(C(O4)CO)O)O)O)O)O)O

> <PUBCHEM_OPENEYE_ISO_SMILES>
C1=CC(=C(C=C1C2=CC(=O)C3=C(O2)C=C(C(=C3O)[C@H]4[C@@H]([C@H]([C@@H]([C@H](O4)CO)O)O)O)O)O)O

> <PUBCHEM_TOTAL_CHARGE>
0

> <PUBCHEM_XLOGP3_AA>
-0.2

> <RelativeEnergy>
0

> <StereoisomerIndex>
1

> <TautomerIndex>
4

> <LibDock Warning>
no hit found

> <ErrorText>
LibDock failed

$$$$
122738
  SciTegic09112317153D

 67 72  0  0  0  0            999 V2000
    0.3570   -1.6440    1.3140 O   0  0  0  1  0  0
    0.2580    1.7830   -0.2560 O   0  0  0  1  0  0
   -2.9670   -0.2640    0.6320 O   0  0  0  1  0  0
   -0.5300    4.3920    0.7700 O   0  0  0  1  0  0
   -2.8990   -0.3520   -3.1390 O   0  0  0  1  0  0
   -1.8950    4.2530   -3.7870 O   0  0  0  1  0  0
    0.4040   -0.6870   -3.4550 O   0  5  0  1  0  0
    4.3050   -2.2970   -1.2360 O   0  0  0  1  0  0
   -1.6080   -5.3620   -1.5650 O   0  0  0  1  0  0
   -3.3570   -6.5430    0.1770 O   0  0  0  1  0  0
    2.4940   -0.0590    3.7030 O   0  0  0  1  0  0
    3.4460    2.0860    5.1090 O   0  0  0  1  0  0
   -1.1140   -0.5740   -0.9440 C   0  0  1  1  0  0
   -1.5570   -0.3960    0.5360 C   0  0  2  1  0  0
   -1.3140    0.6960   -1.6840 C   0  0  0  1  0  0
   -1.0670   -1.5550    1.4270 C   0  0  1  1  0  0
    0.3020   -1.0640   -1.0510 C   0  0  0  1  0  0
   -0.5990    1.8600   -1.3000 C   0  0  0  1  0  0
   -0.8020    3.0800   -2.0090 C   0  0  0  1  0  0
    0.5140    4.2140   -0.1730 C   0  0  1  1  0  0
    1.1900    2.8360    0.0140 C   0  0  1  1  0  0
   -0.0710    4.3090   -1.6000 C   0  0  0  1  0  0
    0.9730   -1.5490    0.1140 C   0  0  0  1  0  0
   -2.2190    0.7450   -2.7720 C   0  0  0  1  0  0
   -1.6750   -2.8810    1.0940 C   0  0  0  1  0  0
   -1.7030    3.1180   -3.1040 C   0  0  0  1  0  0
    1.0070   -1.0730   -2.2950 C   0  0  0  1  0  0
   -2.4100    1.9530   -3.4800 C   0  0  0  1  0  0
    1.7920    2.6360    1.3630 C   0  0  0  1  0  0
    2.3270   -1.9510    0.0440 C   0  0  0  1  0  0
    2.3600   -1.4840   -2.3520 C   0  0  0  1  0  0
   -1.3500   -3.5220   -0.1140 C   0  0  0  1  0  0
    3.0210   -1.9170   -1.1820 C   0  0  0  1  0  0
   -2.5740   -3.4880    1.9870 C   0  0  0  1  0  0
    1.8670    1.3470    1.9150 C   0  0  0  1  0  0
    2.2820    3.7380    2.0860 C   0  0  0  1  0  0
   -1.9170   -4.7680   -0.4310 C   0  0  0  1  0  0
   -3.1440   -4.7320    1.6730 C   0  0  0  1  0  0
   -2.8190   -5.3740    0.4650 C   0  0  0  1  0  0
    2.4290    1.1530    3.1900 C   0  0  0  1  0  0
    2.8420    3.5460    3.3610 C   0  0  0  1  0  0
    2.9180    2.2570    3.9150 C   0  0  0  1  0  0
   -1.7390   -1.3330   -1.4190 H   0  0  0  1  0  0
   -1.1330    0.5250    0.9440 H   0  0  0  1  0  0
   -1.2920   -1.3450    2.4720 H   0  0  0  1  0  0
    1.2300    5.0220   -0.0170 H   0  0  0  1  0  0
    1.9990    2.7470   -0.7140 H   0  0  0  1  0  0
   -0.7110    5.1870   -1.6880 H   0  0  0  1  0  0
    0.7480    4.4560   -2.3080 H   0  0  0  1  0  0
   -3.0980    1.9850   -4.3120 H   0  0  0  1  0  0
    2.8310   -2.2920    0.9360 H   0  0  0  1  0  0
    2.8940   -1.4700   -3.2910 H   0  0  0  1  0  0
   -0.6580   -3.0570   -0.8050 H   0  0  0  1  0  0
   -2.8280   -2.9990    2.9180 H   0  0  0  1  0  0
    1.4910    0.4970    1.3610 H   0  0  0  1  0  0
    2.2270    4.7320    1.6670 H   0  0  0  1  0  0
   -3.8340   -5.1960    2.3620 H   0  0  0  1  0  0
    3.2170    4.3960    3.9140 H   0  0  0  1  0  0
   -3.2250    0.4770    0.0590 H   0  0  0  1  0  0
   -0.1470    4.2620    1.6520 H   0  0  0  1  0  0
   -2.7630   -1.1750   -2.6540 H   0  0  0  1  0  0
   -2.5130    4.2630   -4.5290 H   0  0  0  1  0  0
    4.7710   -2.2690   -2.0840 H   0  0  0  1  0  0
   -2.0050   -6.2180   -1.7750 H   0  0  0  1  0  0
   -3.9720   -6.9460    0.8000 H   0  0  0  1  0  0
    2.8820   -0.1810    4.5800 H   0  0  0  1  0  0
    3.7770    2.8530    5.5950 H   0  0  0  1  0  0
  1 16  1  0
  1 23  1  0
  2 18  1  0
  2 21  1  0
  3 14  1  0
  3 59  1  0
  4 20  1  0
  4 60  1  0
  5 24  1  0
  5 61  1  0
  6 26  1  0
  6 62  1  0
  7 27  1  0
  8 33  1  0
  8 63  1  0
  9 37  1  0
  9 64  1  0
 10 39  1  0
 10 65  1  0
 11 40  1  0
 11 66  1  0
 12 42  1  0
 12 67  1  0
 13 14  1  0
 13 15  1  0
 13 17  1  0
 13 43  1  0
 14 16  1  0
 14 44  1  0
 15 18  2  0
 15 24  1  0
 16 25  1  0
 16 45  1  0
 17 23  2  0
 17 27  1  0
 18 19  1  0
 19 22  1  0
 19 26  2  0
 20 21  1  0
 20 22  1  0
 20 46  1  0
 21 29  1  0
 21 47  1  0
 22 48  1  0
 22 49  1  0
 23 30  1  0
 24 28  2  0
 25 32  2  0
 25 34  1  0
 26 28  1  0
 27 31  2  0
 28 50  1  0
 29 35  2  0
 29 36  1  0
 30 33  2  0
 30 51  1  0
 31 33  1  0
 31 52  1  0
 32 37  1  0
 32 53  1  0
 34 38  2  0
 34 54  1  0
 35 40  1  0
 35 55  1  0
 36 41  2  0
 36 56  1  0
 37 39  2  0
 38 39  1  0
 38 57  1  0
 40 42  2  0
 41 42  1  0
 41 58  1  0
M  CHG  1   7  -1
M  END
> <Name>
122738

> <AbsoluteEnergy>
75.4002

> <ConfNumber>
1

> <Ionization pH>
6.79_DPPPPPPP

> <IonizationIndex>
1

> <NumberOfIonizations>
2

> <NumberOfStereoisomers>
1

> <NumberOfTautomers>
1

> <OBJECTID>
9223375180774178829

> <PUBCHEM_ATOM_DEF_STEREO_COUNT>
5

> <PUBCHEM_ATOM_UDEF_STEREO_COUNT>
0

> <PUBCHEM_BONDANNOTATIONS>
13  43  6
15  18  8
15  24  8
16  25  6
17  23  8
17  27  8
18  19  8
19  26  8
21  29  5
23  30  8
24  28  8
25  32  8
25  34  8
26  28  8
27  31  8
29  35  8
29  36  8
14  3  6
30  33  8
31  33  8
32  37  8
34  38  8
35  40  8
36  41  8
37  39  8
38  39  8
20  4  5
40  42  8
41  42  8

> <PUBCHEM_BOND_DEF_STEREO_COUNT>
0

> <PUBCHEM_BOND_UDEF_STEREO_COUNT>
0

> <PUBCHEM_CACTVS_COMPLEXITY>
925

> <PUBCHEM_CACTVS_HBOND_ACCEPTOR>
12

> <PUBCHEM_CACTVS_HBOND_DONOR>
10

> <PUBCHEM_CACTVS_ROTATABLE_BOND>
3

> <PUBCHEM_CACTVS_SUBSKEYS>
AAADceB4PAAAAAAAAAAAAAAAAAAAAAAAAAA0aMGCAAAAAACRVAAAGgAACAAADRSgmAIwBoAABgCAAiBCAAACCAAgIAAIiAAGiIgNNyKGMRqCeCGlwBULuAfA4PwOoAADCAAIQABAAAYQABCAAAAAAAAAAA==

> <PUBCHEM_CACTVS_TAUTO_COUNT>
986

> <PUBCHEM_CACTVS_TPSA>
221

> <PUBCHEM_COMPONENT_COUNT>
1

> <PUBCHEM_COMPOUND_CANONICALIZED>
1

> <PUBCHEM_COMPOUND_CID>
122738

> <PUBCHEM_COORDINATE_TYPE>
1
5
255

> <PUBCHEM_EXACT_MASS>
578.14242626

> <PUBCHEM_HEAVY_ATOM_COUNT>
42

> <PUBCHEM_ISOTOPIC_ATOM_COUNT>
0

> <PUBCHEM_IUPAC_CAS_NAME>
(2R,3R)-2-(3,4-dihydroxyphenyl)-8-[(2R,3R,4R)-2-(3,4-dihydroxyphenyl)-3,5,7-trihydroxy-3,4-dihydro-2H-1-benzopyran-4-yl]-3,4-dihydro-2H-1-benzopyran-3,5,7-triol

> <PUBCHEM_IUPAC_INCHI>
InChI=1S/C30H26O12/c31-13-7-20(37)24-23(8-13)41-29(12-2-4-16(33)19(36)6-12)27(40)26(24)25-21(38)10-17(34)14-9-22(39)28(42-30(14)25)11-1-3-15(32)18(35)5-11/h1-8,10,22,26-29,31-40H,9H2/t22-,26-,27-,28-,
29-/m1/s1

> <PUBCHEM_IUPAC_INCHIKEY>
XFZJEEAOWLFHDH-NFJBMHMQSA-N

> <PUBCHEM_IUPAC_NAME>
(2R,3R)-2-(3,4-dihydroxyphenyl)-8-[(2R,3R,4R)-2-(3,4-dihydroxyphenyl)-3,5,7-trihydroxy-3,4-dihydro-2H-chromen-4-yl]-3,4-dihydro-2H-chromene-3,5,7-triol

> <PUBCHEM_IUPAC_NAME_MARKUP>
(2<I>R</I>,3<I>R</I>)-2-(3,4-dihydroxyphenyl)-8-[(2<I>R</I>,3<I>R</I>,4<I>R</I>)-2-(3,4-dihydroxyphenyl)-3,5,7-trihydroxy-3,4-dihydro-2<I>H</I>-chromen-4-yl]-3,4-dihydro-2<I>H</I>-chromene-3,5,7-triol

> <PUBCHEM_IUPAC_OPENEYE_NAME>
(2R,3R)-2-(3,4-dihydroxyphenyl)-8-[(2R,3R,4R)-2-(3,4-dihydroxyphenyl)-3,5,7-trihydroxy-chroman-4-yl]chromane-3,5,7-triol

> <PUBCHEM_IUPAC_SYSTEMATIC_NAME>
(2R,3R)-2-[3,4-bis(oxidanyl)phenyl]-8-[(2R,3R,4R)-2-[3,4-bis(oxidanyl)phenyl]-3,5,7-tris(oxidanyl)-3,4-dihydro-2H-chromen-4-yl]-3,4-dihydro-2H-chromene-3,5,7-triol

> <PUBCHEM_IUPAC_TRADITIONAL_NAME>
(2R,3R)-2-(3,4-dihydroxyphenyl)-8-[(2R,3R,4R)-2-(3,4-dihydroxyphenyl)-3,5,7-trihydroxy-chroman-4-yl]chroman-3,5,7-triol

> <PUBCHEM_MOLECULAR_FORMULA>
C30H26O12

> <PUBCHEM_MOLECULAR_WEIGHT>
578.5

> <PUBCHEM_MONOISOTOPIC_WEIGHT>
578.14242626

> <PUBCHEM_OPENEYE_CAN_SMILES>
C1C(C(OC2=C1C(=CC(=C2C3C(C(OC4=CC(=CC(=C34)O)O)C5=CC(=C(C=C5)O)O)O)O)O)C6=CC(=C(C=C6)O)O)O

> <PUBCHEM_OPENEYE_ISO_SMILES>
C1[C@H]([C@H](OC2=C1C(=CC(=C2[C@@H]3[C@H]([C@H](OC4=CC(=CC(=C34)O)O)C5=CC(=C(C=C5)O)O)O)O)O)C6=CC(=C(C=C6)O)O)O

> <PUBCHEM_TOTAL_CHARGE>
0

> <PUBCHEM_XLOGP3_AA>
2.4

> <RelativeEnergy>
0

> <StereoisomerIndex>
1

> <TautomerIndex>
1

> <LibDock Warning>
no hit found

> <ErrorText>
LibDock failed

$$$$
161557
  SciTegic09112317153D

 35 37  0  0  0  0            999 V2000
   -0.9530   -0.3760   -1.8610 O   0  0  0  1  0  0
   -0.6300    2.4740   -2.4660 O   0  0  0  1  0  0
   -0.6110    2.9650    0.6550 O   0  0  0  1  0  0
   -2.4050    1.9260    2.2490 O   0  0  0  1  0  0
    1.3470   -1.6520    2.4920 O   0  0  0  1  0  0
    4.6530   -1.6020   -0.8850 O   0  0  0  1  0  0
   -4.6230   -1.8030    0.6060 O   0  0  0  1  0  0
    3.8710   -2.2590    1.6470 O   0  0  0  1  0  0
    0.2880    0.3410   -1.8230 C   0  0  1  1  0  0
    0.0500    1.8120   -1.4160 C   0  0  2  1  0  0
    1.2390   -0.3500   -0.9010 C   0  0  0  1  0  0
   -0.7800    1.9210   -0.1540 C   0  0  0  1  0  0
   -1.6740    0.9410    0.1150 C   0  0  0  1  0  0
   -1.7990   -0.2080   -0.8280 C   0  0  0  1  0  0
    2.5390   -0.6620   -1.3360 C   0  0  0  1  0  0
    0.8360   -0.6880    0.4030 C   0  0  0  1  0  0
   -2.5490    0.9830    1.3180 C   0  0  0  1  0  0
   -2.7870   -1.1070   -0.6550 C   0  0  0  1  0  0
    1.7290   -1.3380    1.2710 C   0  0  0  1  0  0
    3.4370   -1.3120   -0.4720 C   0  0  0  1  0  0
   -3.5150    0.0550    1.4770 C   0  0  0  1  0  0
   -3.7150   -1.0150    0.4850 C   0  0  0  1  0  0
    3.0320   -1.6490    0.8340 C   0  0  0  1  0  0
    0.7280    0.2900   -2.8200 H   0  0  0  1  0  0
    0.9980    2.3320   -1.2760 H   0  0  0  1  0  0
    2.8530   -0.4030   -2.3370 H   0  0  0  1  0  0
   -0.1620   -0.4490    0.7410 H   0  0  0  1  0  0
   -2.9000   -1.9180   -1.3600 H   0  0  0  1  0  0
   -4.1550    0.0950    2.3460 H   0  0  0  1  0  0
   -0.2810    3.3790   -2.5050 H   0  0  0  1  0  0
   -2.9820    1.9160    3.0250 H   0  0  0  1  0  0
    1.9690   -2.0990    3.0820 H   0  0  0  1  0  0
    4.9170   -1.3650   -1.7830 H   0  0  0  1  0  0
    4.7620   -2.4680    1.3370 H   0  0  0  1  0  0
   -1.3670    3.5230    0.8700 H   0  0  0  1  0  0
  1  9  1  0
  1 14  1  0
  2 10  1  0
  2 30  1  0
  3 12  1  0
  3 35  1  0
  4 17  1  0
  4 31  1  0
  5 19  1  0
  5 32  1  0
  6 20  1  0
  6 33  1  0
  7 22  2  0
  8 23  1  0
  8 34  1  0
  9 10  1  0
  9 11  1  0
  9 24  1  0
 10 12  1  0
 10 25  1  0
 11 15  2  0
 11 16  1  0
 12 13  2  0
 13 14  1  0
 13 17  1  0
 14 18  2  0
 15 20  1  0
 15 26  1  0
 16 19  2  0
 16 27  1  0
 17 21  2  0
 18 22  1  0
 18 28  1  0
 19 23  1  0
 20 23  2  0
 21 22  1  0
 21 29  1  0
M  END
> <Name>
161557

> <AbsoluteEnergy>
31.4258

> <ConfNumber>
1

> <Ionization pH>
7.75_PPPPP

> <IonizationIndex>
1

> <NumberOfIonizations>
2

> <NumberOfStereoisomers>
1

> <NumberOfTautomers>
3

> <OBJECTID>
9223375270968492045

> <PUBCHEM_ATOM_DEF_STEREO_COUNT>
2

> <PUBCHEM_ATOM_UDEF_STEREO_COUNT>
0

> <PUBCHEM_BONDANNOTATIONS>
11  15  8
11  16  8
13  14  8
13  17  8
14  18  8
15  20  8
16  19  8
17  21  8
18  22  8
19  23  8
10  2  6
20  23  8
21  22  8
9  11  5

> <PUBCHEM_BOND_DEF_STEREO_COUNT>
0

> <PUBCHEM_BOND_UDEF_STEREO_COUNT>
0

> <PUBCHEM_CACTVS_COMPLEXITY>
445

> <PUBCHEM_CACTVS_HBOND_ACCEPTOR>
8

> <PUBCHEM_CACTVS_HBOND_DONOR>
6

> <PUBCHEM_CACTVS_ROTATABLE_BOND>
1

> <PUBCHEM_CACTVS_SUBSKEYS>
AAADccBwPAAAAAAAAAAAAAAAAAAAAAAAAAA0YIAAAAAAAACRQAAAGgAACAAADBSgmAIwBoAABgCIAqBSAAICCAAkIAAAiAFGiMgNNzaGNRqCeWGl4BULuQfI7PzOIAABCAAIQABAAAIQABCAAAAAAAAAAA==

> <PUBCHEM_CACTVS_TAUTO_COUNT>
-1

> <PUBCHEM_CACTVS_TPSA>
148

> <PUBCHEM_COMPONENT_COUNT>
1

> <PUBCHEM_COMPOUND_CANONICALIZED>
1

> <PUBCHEM_COMPOUND_CID>
161557

> <PUBCHEM_COORDINATE_TYPE>
1
5
255

> <PUBCHEM_EXACT_MASS>
320.05321734

> <PUBCHEM_HEAVY_ATOM_COUNT>
23

> <PUBCHEM_ISOTOPIC_ATOM_COUNT>
0

> <PUBCHEM_IUPAC_CAS_NAME>
(2R,3R)-3,5,7-trihydroxy-2-(3,4,5-trihydroxyphenyl)-3,4-dihydro-2H-1-benzopyran-4-one

> <PUBCHEM_IUPAC_INCHI>
InChI=1S/C15H12O8/c16-6-3-7(17)11-10(4-6)23-15(14(22)13(11)21)5-1-8(18)12(20)9(19)2-5/h1-4,14-20,22H/t14-,15+/m0/s1

> <PUBCHEM_IUPAC_INCHIKEY>
KJXSIXMJHKAJOD-LSDHHAIUSA-N

> <PUBCHEM_IUPAC_NAME>
(2R,3R)-3,5,7-trihydroxy-2-(3,4,5-trihydroxyphenyl)-2,3-dihydrochromen-4-one

> <PUBCHEM_IUPAC_NAME_MARKUP>
(2<I>R</I>,3<I>R</I>)-3,5,7-trihydroxy-2-(3,4,5-trihydroxyphenyl)-2,3-dihydrochromen-4-one

> <PUBCHEM_IUPAC_OPENEYE_NAME>
(2R,3R)-3,5,7-trihydroxy-2-(3,4,5-trihydroxyphenyl)chroman-4-one

> <PUBCHEM_IUPAC_SYSTEMATIC_NAME>
(2R,3R)-3,5,7-tris(oxidanyl)-2-[3,4,5-tris(oxidanyl)phenyl]-2,3-dihydrochromen-4-one

> <PUBCHEM_IUPAC_TRADITIONAL_NAME>
(2R,3R)-3,5,7-trihydroxy-2-(3,4,5-trihydroxyphenyl)chroman-4-one

> <PUBCHEM_MOLECULAR_FORMULA>
C15H12O8

> <PUBCHEM_MOLECULAR_WEIGHT>
320.25

> <PUBCHEM_MONOISOTOPIC_WEIGHT>
320.05321734

> <PUBCHEM_OPENEYE_CAN_SMILES>
C1=C(C=C(C(=C1O)O)O)C2C(C(=O)C3=C(C=C(C=C3O2)O)O)O

> <PUBCHEM_OPENEYE_ISO_SMILES>
C1=C(C=C(C(=C1O)O)O)[C@@H]2[C@H](C(=O)C3=C(C=C(C=C3O2)O)O)O

> <PUBCHEM_TOTAL_CHARGE>
0

> <PUBCHEM_XLOGP3_AA>
1.1

> <RelativeEnergy>
0

> <StereoisomerIndex>
1

> <TautomerIndex>
3

> <LibDock Warning>
no hit found

> <ErrorText>
LibDock failed

$$$$
161557
  SciTegic09112317153D

 34 36  0  0  0  0            999 V2000
   -0.6610   -0.8140    0.2290 O   0  0  0  1  0  0
    1.1090    1.9950   -1.3430 O   0  0  0  1  0  0
   -1.3620    3.1450   -0.9770 O   0  0  0  1  0  0
   -3.9230    2.7400   -0.7860 O   0  0  0  1  0  0
    5.1890   -0.0130   -0.8730 O   0  5  0  1  0  0
    3.0660   -3.7210    1.2310 O   0  0  0  1  0  0
   -5.1890   -1.2840    1.1440 O   0  0  0  1  0  0
    5.3390   -2.4280    0.4390 O   0  0  0  1  0  0
    0.2980   -0.1690   -0.6160 C   0  0  1  1  0  0
    0.2560    1.3630   -0.4030 C   0  0  2  1  0  0
    1.6330   -0.7660   -0.3350 C   0  0  0  1  0  0
   -1.1550    1.9000   -0.5460 C   0  0  0  1  0  0
   -2.1870    1.0870   -0.2190 C   0  0  0  1  0  0
   -1.9020   -0.3010    0.2410 C   0  0  0  1  0  0
    1.7280   -1.9980    0.3360 C   0  0  0  1  0  0
    2.8030   -0.1000   -0.7430 C   0  0  0  1  0  0
   -3.6020    1.5450   -0.2920 C   0  0  0  1  0  0
   -2.9080   -1.0750    0.6950 C   0  0  0  1  0  0
    4.0620   -0.6650   -0.4790 C   0  0  0  1  0  0
    2.9870   -2.5660    0.6010 C   0  0  0  1  0  0
   -4.5910    0.7420    0.1540 C   0  0  0  1  0  0
   -4.3020   -0.5950    0.7010 C   0  0  0  1  0  0
    4.1570   -1.8990    0.1940 C   0  0  0  1  0  0
    0.0330   -0.4100   -1.6490 H   0  0  0  1  0  0
    0.6250    1.6190    0.5910 H   0  0  0  1  0  0
    0.8310   -2.5130    0.6490 H   0  0  0  1  0  0
    2.7350    0.8470   -1.2590 H   0  0  0  1  0  0
   -2.6940   -2.0720    1.0560 H   0  0  0  1  0  0
   -5.6160    1.0820    0.1110 H   0  0  0  1  0  0
    1.2360    2.9090   -1.0440 H   0  0  0  1  0  0
   -4.8520    3.0050   -0.8160 H   0  0  0  1  0  0
    2.2530   -4.1670    1.5040 H   0  0  0  1  0  0
    6.1350   -1.9610    0.1550 H   0  0  0  1  0  0
   -2.0100    3.7000   -0.5250 H   0  0  0  1  0  0
  1  9  1  0
  1 14  1  0
  2 10  1  0
  2 30  1  0
  3 12  1  0
  3 34  1  0
  4 17  1  0
  4 31  1  0
  5 19  1  0
  6 20  1  0
  6 32  1  0
  7 22  2  0
  8 23  1  0
  8 33  1  0
  9 10  1  0
  9 11  1  0
  9 24  1  0
 10 12  1  0
 10 25  1  0
 11 15  2  0
 11 16  1  0
 12 13  2  0
 13 14  1  0
 13 17  1  0
 14 18  2  0
 15 20  1  0
 15 26  1  0
 16 19  2  0
 16 27  1  0
 17 21  2  0
 18 22  1  0
 18 28  1  0
 19 23  1  0
 20 23  2  0
 21 22  1  0
 21 29  1  0
M  CHG  1   5  -1
M  END
> <Name>
161557

> <AbsoluteEnergy>
30.423

> <ConfNumber>
1

> <Ionization pH>
7.75_DPPPP

> <IonizationIndex>
2

> <NumberOfIonizations>
2

> <NumberOfStereoisomers>
1

> <NumberOfTautomers>
3

> <OBJECTID>
9223375283853393933

> <PUBCHEM_ATOM_DEF_STEREO_COUNT>
2

> <PUBCHEM_ATOM_UDEF_STEREO_COUNT>
0

> <PUBCHEM_BONDANNOTATIONS>
11  15  8
11  16  8
13  14  8
13  17  8
14  18  8
15  20  8
16  19  8
17  21  8
18  22  8
19  23  8
10  2  6
20  23  8
21  22  8
9  11  5

> <PUBCHEM_BOND_DEF_STEREO_COUNT>
0

> <PUBCHEM_BOND_UDEF_STEREO_COUNT>
0

> <PUBCHEM_CACTVS_COMPLEXITY>
445

> <PUBCHEM_CACTVS_HBOND_ACCEPTOR>
8

> <PUBCHEM_CACTVS_HBOND_DONOR>
6

> <PUBCHEM_CACTVS_ROTATABLE_BOND>
1

> <PUBCHEM_CACTVS_SUBSKEYS>
AAADccBwPAAAAAAAAAAAAAAAAAAAAAAAAAA0YIAAAAAAAACRQAAAGgAACAAADBSgmAIwBoAABgCIAqBSAAICCAAkIAAAiAFGiMgNNzaGNRqCeWGl4BULuQfI7PzOIAABCAAIQABAAAIQABCAAAAAAAAAAA==

> <PUBCHEM_CACTVS_TAUTO_COUNT>
-1

> <PUBCHEM_CACTVS_TPSA>
148

> <PUBCHEM_COMPONENT_COUNT>
1

> <PUBCHEM_COMPOUND_CANONICALIZED>
1

> <PUBCHEM_COMPOUND_CID>
161557

> <PUBCHEM_COORDINATE_TYPE>
1
5
255

> <PUBCHEM_EXACT_MASS>
320.05321734

> <PUBCHEM_HEAVY_ATOM_COUNT>
23

> <PUBCHEM_ISOTOPIC_ATOM_COUNT>
0

> <PUBCHEM_IUPAC_CAS_NAME>
(2R,3R)-3,5,7-trihydroxy-2-(3,4,5-trihydroxyphenyl)-3,4-dihydro-2H-1-benzopyran-4-one

> <PUBCHEM_IUPAC_INCHI>
InChI=1S/C15H12O8/c16-6-3-7(17)11-10(4-6)23-15(14(22)13(11)21)5-1-8(18)12(20)9(19)2-5/h1-4,14-20,22H/t14-,15+/m0/s1

> <PUBCHEM_IUPAC_INCHIKEY>
KJXSIXMJHKAJOD-LSDHHAIUSA-N

> <PUBCHEM_IUPAC_NAME>
(2R,3R)-3,5,7-trihydroxy-2-(3,4,5-trihydroxyphenyl)-2,3-dihydrochromen-4-one

> <PUBCHEM_IUPAC_NAME_MARKUP>
(2<I>R</I>,3<I>R</I>)-3,5,7-trihydroxy-2-(3,4,5-trihydroxyphenyl)-2,3-dihydrochromen-4-one

> <PUBCHEM_IUPAC_OPENEYE_NAME>
(2R,3R)-3,5,7-trihydroxy-2-(3,4,5-trihydroxyphenyl)chroman-4-one

> <PUBCHEM_IUPAC_SYSTEMATIC_NAME>
(2R,3R)-3,5,7-tris(oxidanyl)-2-[3,4,5-tris(oxidanyl)phenyl]-2,3-dihydrochromen-4-one

> <PUBCHEM_IUPAC_TRADITIONAL_NAME>
(2R,3R)-3,5,7-trihydroxy-2-(3,4,5-trihydroxyphenyl)chroman-4-one

> <PUBCHEM_MOLECULAR_FORMULA>
C15H12O8

> <PUBCHEM_MOLECULAR_WEIGHT>
320.25

> <PUBCHEM_MONOISOTOPIC_WEIGHT>
320.05321734

> <PUBCHEM_OPENEYE_CAN_SMILES>
C1=C(C=C(C(=C1O)O)O)C2C(C(=O)C3=C(C=C(C=C3O2)O)O)O

> <PUBCHEM_OPENEYE_ISO_SMILES>
C1=C(C=C(C(=C1O)O)O)[C@@H]2[C@H](C(=O)C3=C(C=C(C=C3O2)O)O)O

> <PUBCHEM_TOTAL_CHARGE>
0

> <PUBCHEM_XLOGP3_AA>
1.1

> <RelativeEnergy>
0

> <StereoisomerIndex>
1

> <TautomerIndex>
3

> <LibDock Warning>
no hit found

> <ErrorText>
LibDock failed

$$$$
199472
  SciTegic09112317153D

 51 54  0  0  0  0            999 V2000
    1.1420    0.2070    1.0540 O   0  0  0  1  0  0
    0.5600   -1.9170   -0.8190 O   0  0  0  1  0  0
    4.2040    0.5440   -2.6560 O   0  0  0  1  0  0
    5.7570    1.1060    1.8130 O   0  0  0  1  0  0
   -1.6020    3.7170   -2.7410 O   0  0  0  1  0  0
   -1.2440    4.5840    1.8920 O   0  0  0  1  0  0
   -0.4680   -3.3150   -2.2370 O   0  0  0  1  0  0
   -1.8750    5.4250   -0.6290 O   0  0  0  1  0  0
   -5.1900   -3.0110   -0.1540 O   0  0  0  1  0  0
   -2.0620   -3.0870    3.3900 O   0  0  0  1  0  0
   -4.6500   -3.1570    2.5190 O   0  0  0  1  0  0
    0.2970   -0.5500   -1.1080 C   0  0  1  1  0  0
   -0.0180    0.1820    0.2100 C   0  0  2  1  0  0
    1.5280    0.0590   -1.8040 C   0  0  0  1  0  0
    2.6340    0.3490   -0.8550 C   0  0  0  1  0  0
   -0.5110    1.5740   -0.0130 C   0  0  0  1  0  0
    2.3800    0.4000    0.5450 C   0  0  0  1  0  0
    3.9490    0.5750   -1.3390 C   0  0  0  1  0  0
    3.4440    0.6510    1.4440 C   0  0  0  1  0  0
   -0.6510    2.4530    1.0740 C   0  0  0  1  0  0
   -0.8350    2.0070   -1.3100 C   0  0  0  1  0  0
    5.0040    0.8350   -0.4340 C   0  0  0  1  0  0
    4.7520    0.8690    0.9560 C   0  0  0  1  0  0
   -0.4390   -2.7140   -1.1880 C   0  0  0  1  0  0
   -1.2990    3.3160   -1.5220 C   0  0  0  1  0  0
   -1.1150    3.7630    0.8680 C   0  0  0  1  0  0
   -1.4400    4.1950   -0.4320 C   0  0  0  1  0  0
   -1.5560   -2.8320   -0.2030 C   0  0  0  1  0  0
   -1.2790   -2.9070    1.1720 C   0  0  0  1  0  0
   -2.8880   -2.8680   -0.6520 C   0  0  0  1  0  0
   -3.9420   -2.9790    0.2730 C   0  0  0  1  0  0
   -2.3280   -3.0170    2.1010 C   0  0  0  1  0  0
   -3.6630   -3.0520    1.6500 C   0  0  0  1  0  0
   -0.5610   -0.5290   -1.7820 H   0  0  0  1  0  0
   -0.8020   -0.3500    0.7490 H   0  0  0  1  0  0
    1.2490    0.9920   -2.2960 H   0  0  0  1  0  0
    1.8710   -0.6150   -2.5910 H   0  0  0  1  0  0
    3.2550    0.6790    2.5080 H   0  0  0  1  0  0
   -0.4030    2.1250    2.0750 H   0  0  0  1  0  0
   -0.7290    1.3340   -2.1490 H   0  0  0  1  0  0
    6.0040    1.0060   -0.8050 H   0  0  0  1  0  0
   -0.2570   -2.8810    1.5240 H   0  0  0  1  0  0
   -3.1110   -2.8100   -1.7070 H   0  0  0  1  0  0
    5.1050    0.7010   -2.9670 H   0  0  0  1  0  0
    6.6460    1.2530    1.4680 H   0  0  0  1  0  0
   -1.9190    4.6200   -2.8760 H   0  0  0  1  0  0
   -1.0180    4.2730    2.7790 H   0  0  0  1  0  0
   -1.9660    6.0200    0.1270 H   0  0  0  1  0  0
   -5.9070   -3.0870    0.4890 H   0  0  0  1  0  0
   -1.1420   -3.0660    3.6840 H   0  0  0  1  0  0
   -4.4460   -3.2080    3.4630 H   0  0  0  1  0  0
  1 13  1  0
  1 17  1  0
  2 12  1  0
  2 24  1  0
  3 18  1  0
  3 44  1  0
  4 23  1  0
  4 45  1  0
  5 25  1  0
  5 46  1  0
  6 26  1  0
  6 47  1  0
  7 24  2  0
  8 27  1  0
  8 48  1  0
  9 31  1  0
  9 49  1  0
 10 32  1  0
 10 50  1  0
 11 33  1  0
 11 51  1  0
 12 13  1  0
 12 14  1  0
 12 34  1  0
 13 16  1  0
 13 35  1  0
 14 15  1  0
 14 36  1  0
 14 37  1  0
 15 17  2  0
 15 18  1  0
 16 20  2  0
 16 21  1  0
 17 19  1  0
 18 22  2  0
 19 23  2  0
 19 38  1  0
 20 26  1  0
 20 39  1  0
 21 25  2  0
 21 40  1  0
 22 23  1  0
 22 41  1  0
 24 28  1  0
 25 27  1  0
 26 27  2  0
 28 29  2  0
 28 30  1  0
 29 32  1  0
 29 42  1  0
 30 31  2  0
 30 43  1  0
 31 33  1  0
 32 33  2  0
M  END
> <Name>
199472

> <AbsoluteEnergy>
47.0639

> <ConfNumber>
1

> <Ionization pH>
8.08_PPPPPPPP

> <IonizationIndex>
1

> <NumberOfIonizations>
2

> <NumberOfStereoisomers>
1

> <NumberOfTautomers>
2

> <OBJECTID>
9223375288148361229

> <PUBCHEM_ATOM_DEF_STEREO_COUNT>
2

> <PUBCHEM_ATOM_UDEF_STEREO_COUNT>
0

> <PUBCHEM_BONDANNOTATIONS>
13  16  6
15  17  8
15  18  8
16  20  8
16  21  8
17  19  8
18  22  8
19  23  8
12  2  5
20  26  8
21  25  8
22  23  8
25  27  8
26  27  8
28  29  8
28  30  8
29  32  8
30  31  8
31  33  8
32  33  8

> <PUBCHEM_BOND_DEF_STEREO_COUNT>
0

> <PUBCHEM_BOND_UDEF_STEREO_COUNT>
0

> <PUBCHEM_CACTVS_COMPLEXITY>
667

> <PUBCHEM_CACTVS_HBOND_ACCEPTOR>
11

> <PUBCHEM_CACTVS_HBOND_DONOR>
8

> <PUBCHEM_CACTVS_ROTATABLE_BOND>
4

> <PUBCHEM_CACTVS_SUBSKEYS>
AAADceB4PAAAAAAAAAAAAAAAAAAAAAAAAAA0YMEAAAAAAACRUAAAGgAACAAADBSgmAIwDoAABgCIAiDSCAACCAAkIAAAiAEGiMgNJzKGNRqCeSGlwBULuYfK7PzOIAABCAAIQABAAAIQABCAAAAAAAAAAA==

> <PUBCHEM_CACTVS_TAUTO_COUNT>
1000

> <PUBCHEM_CACTVS_TPSA>
197

> <PUBCHEM_COMPONENT_COUNT>
1

> <PUBCHEM_COMPOUND_CANONICALIZED>
1

> <PUBCHEM_COMPOUND_CID>
199472

> <PUBCHEM_COORDINATE_TYPE>
1
5
255

> <PUBCHEM_EXACT_MASS>
458.08491139

> <PUBCHEM_HEAVY_ATOM_COUNT>
33

> <PUBCHEM_ISOTOPIC_ATOM_COUNT>
0

> <PUBCHEM_IUPAC_CAS_NAME>
3,4,5-trihydroxybenzoic acid [(2S,3R)-5,7-dihydroxy-2-(3,4,5-trihydroxyphenyl)-3,4-dihydro-2H-1-benzopyran-3-yl] ester

> <PUBCHEM_IUPAC_INCHI>
InChI=1S/C22H18O11/c23-10-5-12(24)11-7-18(33-22(31)9-3-15(27)20(30)16(28)4-9)21(32-17(11)6-10)8-1-13(25)19(29)14(26)2-8/h1-6,18,21,23-30H,7H2/t18-,21+/m1/s1

> <PUBCHEM_IUPAC_INCHIKEY>
WMBWREPUVVBILR-NQIIRXRSSA-N

> <PUBCHEM_IUPAC_NAME>
[(2S,3R)-5,7-dihydroxy-2-(3,4,5-trihydroxyphenyl)-3,4-dihydro-2H-chromen-3-yl] 3,4,5-trihydroxybenzoate

> <PUBCHEM_IUPAC_NAME_MARKUP>
[(2<I>S</I>,3<I>R</I>)-5,7-dihydroxy-2-(3,4,5-trihydroxyphenyl)-3,4-dihydro-2<I>H</I>-chromen-3-yl] 3,4,5-trihydroxybenzoate

> <PUBCHEM_IUPAC_OPENEYE_NAME>
[(2S,3R)-5,7-dihydroxy-2-(3,4,5-trihydroxyphenyl)chroman-3-yl] 3,4,5-trihydroxybenzoate

> <PUBCHEM_IUPAC_SYSTEMATIC_NAME>
[(2S,3R)-5,7-bis(oxidanyl)-2-[3,4,5-tris(oxidanyl)phenyl]-3,4-dihydro-2H-chromen-3-yl] 3,4,5-tris(oxidanyl)benzoate

> <PUBCHEM_IUPAC_TRADITIONAL_NAME>
3,4,5-trihydroxybenzoic acid [(2S,3R)-5,7-dihydroxy-2-(3,4,5-trihydroxyphenyl)chroman-3-yl] ester

> <PUBCHEM_MOLECULAR_FORMULA>
C22H18O11

> <PUBCHEM_MOLECULAR_WEIGHT>
458.4

> <PUBCHEM_MONOISOTOPIC_WEIGHT>
458.08491139

> <PUBCHEM_OPENEYE_CAN_SMILES>
C1C(C(OC2=CC(=CC(=C21)O)O)C3=CC(=C(C(=C3)O)O)O)OC(=O)C4=CC(=C(C(=C4)O)O)O

> <PUBCHEM_OPENEYE_ISO_SMILES>
C1[C@H]([C@@H](OC2=CC(=CC(=C21)O)O)C3=CC(=C(C(=C3)O)O)O)OC(=O)C4=CC(=C(C(=C4)O)O)O

> <PUBCHEM_TOTAL_CHARGE>
0

> <PUBCHEM_XLOGP3>
1.2

> <RelativeEnergy>
0

> <StereoisomerIndex>
1

> <TautomerIndex>
1

> <LibDock Warning>
no hit found

> <ErrorText>
LibDock failed

$$$$
199472
  SciTegic09112317153D

 51 54  0  0  0  0            999 V2000
   -0.2640    0.5060   -0.8910 O   0  0  0  1  0  0
    0.7190   -1.3180    1.1250 O   0  0  0  1  0  0
   -4.0360   -1.5290    1.3180 O   0  0  0  1  0  0
   -4.0070   -1.0040   -3.4170 O   0  0  0  1  0  0
   -3.1120    4.3590    0.3770 O   0  0  0  1  0  0
    1.0880    5.3120    2.3230 O   0  0  0  1  0  0
    2.6400   -0.0830    1.3500 O   0  0  0  1  0  0
   -1.4470    6.0900    1.6740 O   0  0  0  1  0  0
    6.0390   -2.4780   -1.3360 O   0  0  0  1  0  0
    1.9600   -5.1020   -1.8140 O   0  0  0  1  0  0
    4.6220   -4.6170   -2.3500 O   0  0  0  1  0  0
    0.0610   -0.1000    1.4520 C   0  0  1  1  0  0
    0.3430    0.9280    0.3400 C   0  0  2  1  0  0
   -1.4490   -0.3710    1.5930 C   0  0  0  1  0  0
   -2.1260   -0.5240    0.2790 C   0  0  0  1  0  0
   -0.1320    2.2980    0.6950 C   0  0  0  1  0  0
   -1.4850   -0.0780   -0.9120 C   0  0  0  1  0  0
   -3.4130   -1.1150    0.2040 C   0  0  0  1  0  0
   -2.1260   -0.2500   -2.1620 C   0  0  0  1  0  0
    0.7240    3.1890    1.3620 C   0  0  0  1  0  0
   -1.4370    2.6980    0.3600 C   0  0  0  1  0  0
   -4.0490   -1.2740   -1.0480 C   0  0  0  1  0  0
   -3.4050   -0.8460   -2.2300 C   0  0  0  1  0  0
    2.0080   -1.1350    0.8430 C   0  0  0  1  0  0
   -1.8870    3.9870    0.6920 C   0  0  0  1  0  0
    0.2790    4.4800    1.6950 C   0  0  0  1  0  0
   -1.0280    4.8790    1.3620 C   0  0  0  1  0  0
    2.6600   -2.0070    0.0520 C   0  0  0  1  0  0
    1.9620   -3.1800   -0.5140 C   0  0  0  1  0  0
    4.0910   -1.8110   -0.2650 C   0  0  0  1  0  0
    4.7500   -2.6760   -1.0620 C   0  0  0  1  0  0
    2.6090   -4.0540   -1.3130 C   0  0  0  1  0  0
    4.0390   -3.8390   -1.6300 C   0  0  0  1  0  0
    0.4700    0.2340    2.4060 H   0  0  0  1  0  0
    1.4160    0.9980    0.1650 H   0  0  0  1  0  0
   -1.9220    0.4540    2.1260 H   0  0  0  1  0  0
   -1.6020   -1.2620    2.2040 H   0  0  0  1  0  0
   -1.6360    0.0780   -3.0690 H   0  0  0  1  0  0
    1.7290    2.8860    1.6220 H   0  0  0  1  0  0
   -2.1000    2.0160   -0.1540 H   0  0  0  1  0  0
   -5.0320   -1.7240   -1.1010 H   0  0  0  1  0  0
    0.9180   -3.3430   -0.2890 H   0  0  0  1  0  0
    4.6200   -0.9630    0.1490 H   0  0  0  1  0  0
   -3.6270   -1.3650    2.1780 H   0  0  0  1  0  0
   -4.8810   -1.4160   -3.4520 H   0  0  0  1  0  0
   -3.4130    5.2450    0.6090 H   0  0  0  1  0  0
    1.9820    5.0240    2.5460 H   0  0  0  1  0  0
   -0.8500    6.6930    2.1330 H   0  0  0  1  0  0
    6.5010   -3.1030   -1.9070 H   0  0  0  1  0  0
    1.0260   -5.2290   -1.5980 H   0  0  0  1  0  0
    2.1700    0.5030    1.9590 H   0  0  0  1  0  0
  1 13  1  0
  1 17  1  0
  2 12  1  0
  2 24  1  0
  3 18  1  0
  3 44  1  0
  4 23  1  0
  4 45  1  0
  5 25  1  0
  5 46  1  0
  6 26  1  0
  6 47  1  0
  7 24  1  0
  7 51  1  0
  8 27  1  0
  8 48  1  0
  9 31  1  0
  9 49  1  0
 10 32  1  0
 10 50  1  0
 11 33  2  0
 12 13  1  0
 12 14  1  0
 12 34  1  0
 13 16  1  0
 13 35  1  0
 14 15  1  0
 14 36  1  0
 14 37  1  0
 15 17  2  0
 15 18  1  0
 16 20  2  0
 16 21  1  0
 17 19  1  0
 18 22  2  0
 19 23  2  0
 19 38  1  0
 20 26  1  0
 20 39  1  0
 21 25  2  0
 21 40  1  0
 22 23  1  0
 22 41  1  0
 24 28  2  0
 25 27  1  0
 26 27  2  0
 28 29  1  0
 28 30  1  0
 29 32  2  0
 29 42  1  0
 30 31  2  0
 30 43  1  0
 31 33  1  0
 32 33  1  0
M  END
> <Name>
199472

> <AbsoluteEnergy>
43.0511

> <ConfNumber>
1

> <Ionization pH>
8.08_PPPPPPPP

> <IonizationIndex>
1

> <NumberOfIonizations>
2

> <NumberOfStereoisomers>
1

> <NumberOfTautomers>
2

> <OBJECTID>
9223375292443328525

> <PUBCHEM_ATOM_DEF_STEREO_COUNT>
2

> <PUBCHEM_ATOM_UDEF_STEREO_COUNT>
0

> <PUBCHEM_BONDANNOTATIONS>
13  16  6
15  17  8
15  18  8
16  20  8
16  21  8
17  19  8
18  22  8
19  23  8
12  2  5
20  26  8
21  25  8
22  23  8
25  27  8
26  27  8
28  29  8
28  30  8
29  32  8
30  31  8
31  33  8
32  33  8

> <PUBCHEM_BOND_DEF_STEREO_COUNT>
0

> <PUBCHEM_BOND_UDEF_STEREO_COUNT>
0

> <PUBCHEM_CACTVS_COMPLEXITY>
667

> <PUBCHEM_CACTVS_HBOND_ACCEPTOR>
11

> <PUBCHEM_CACTVS_HBOND_DONOR>
8

> <PUBCHEM_CACTVS_ROTATABLE_BOND>
4

> <PUBCHEM_CACTVS_SUBSKEYS>
AAADceB4PAAAAAAAAAAAAAAAAAAAAAAAAAA0YMEAAAAAAACRUAAAGgAACAAADBSgmAIwDoAABgCIAiDSCAACCAAkIAAAiAEGiMgNJzKGNRqCeSGlwBULuYfK7PzOIAABCAAIQABAAAIQABCAAAAAAAAAAA==

> <PUBCHEM_CACTVS_TAUTO_COUNT>
1000

> <PUBCHEM_CACTVS_TPSA>
197

> <PUBCHEM_COMPONENT_COUNT>
1

> <PUBCHEM_COMPOUND_CANONICALIZED>
1

> <PUBCHEM_COMPOUND_CID>
199472

> <PUBCHEM_COORDINATE_TYPE>
1
5
255

> <PUBCHEM_EXACT_MASS>
458.08491139

> <PUBCHEM_HEAVY_ATOM_COUNT>
33

> <PUBCHEM_ISOTOPIC_ATOM_COUNT>
0

> <PUBCHEM_IUPAC_CAS_NAME>
3,4,5-trihydroxybenzoic acid [(2S,3R)-5,7-dihydroxy-2-(3,4,5-trihydroxyphenyl)-3,4-dihydro-2H-1-benzopyran-3-yl] ester

> <PUBCHEM_IUPAC_INCHI>
InChI=1S/C22H18O11/c23-10-5-12(24)11-7-18(33-22(31)9-3-15(27)20(30)16(28)4-9)21(32-17(11)6-10)8-1-13(25)19(29)14(26)2-8/h1-6,18,21,23-30H,7H2/t18-,21+/m1/s1

> <PUBCHEM_IUPAC_INCHIKEY>
WMBWREPUVVBILR-NQIIRXRSSA-N

> <PUBCHEM_IUPAC_NAME>
[(2S,3R)-5,7-dihydroxy-2-(3,4,5-trihydroxyphenyl)-3,4-dihydro-2H-chromen-3-yl] 3,4,5-trihydroxybenzoate

> <PUBCHEM_IUPAC_NAME_MARKUP>
[(2<I>S</I>,3<I>R</I>)-5,7-dihydroxy-2-(3,4,5-trihydroxyphenyl)-3,4-dihydro-2<I>H</I>-chromen-3-yl] 3,4,5-trihydroxybenzoate

> <PUBCHEM_IUPAC_OPENEYE_NAME>
[(2S,3R)-5,7-dihydroxy-2-(3,4,5-trihydroxyphenyl)chroman-3-yl] 3,4,5-trihydroxybenzoate

> <PUBCHEM_IUPAC_SYSTEMATIC_NAME>
[(2S,3R)-5,7-bis(oxidanyl)-2-[3,4,5-tris(oxidanyl)phenyl]-3,4-dihydro-2H-chromen-3-yl] 3,4,5-tris(oxidanyl)benzoate

> <PUBCHEM_IUPAC_TRADITIONAL_NAME>
3,4,5-trihydroxybenzoic acid [(2S,3R)-5,7-dihydroxy-2-(3,4,5-trihydroxyphenyl)chroman-3-yl] ester

> <PUBCHEM_MOLECULAR_FORMULA>
C22H18O11

> <PUBCHEM_MOLECULAR_WEIGHT>
458.4

> <PUBCHEM_MONOISOTOPIC_WEIGHT>
458.08491139

> <PUBCHEM_OPENEYE_CAN_SMILES>
C1C(C(OC2=CC(=CC(=C21)O)O)C3=CC(=C(C(=C3)O)O)O)OC(=O)C4=CC(=C(C(=C4)O)O)O

> <PUBCHEM_OPENEYE_ISO_SMILES>
C1[C@H]([C@@H](OC2=CC(=CC(=C21)O)O)C3=CC(=C(C(=C3)O)O)O)OC(=O)C4=CC(=C(C(=C4)O)O)O

> <PUBCHEM_TOTAL_CHARGE>
0

> <PUBCHEM_XLOGP3>
1.2

> <RelativeEnergy>
0

> <StereoisomerIndex>
1

> <TautomerIndex>
2

> <LibDock Warning>
no hit found

> <ErrorText>
LibDock failed

$$$$
199472
  SciTegic09112317153D

 50 53  0  0  0  0            999 V2000
    2.0650    1.7990    0.1090 O   0  0  0  1  0  0
   -0.4100   -0.7460   -0.8580 O   0  0  0  1  0  0
    4.5520   -2.1660   -1.0350 O   0  0  0  1  0  0
    6.8290    1.8560    0.1190 O   0  0  0  1  0  0
   -2.8080    3.0500   -2.5110 O   0  5  0  1  0  0
   -1.9090    4.7530    1.8450 O   0  0  0  1  0  0
    0.2040   -1.2360    1.2400 O   0  0  0  1  0  0
   -3.3650    4.8050   -0.4670 O   0  0  0  1  0  0
   -4.7880   -3.0030   -1.4670 O   0  0  0  1  0  0
   -3.5910   -4.0940    2.9720 O   0  0  0  1  0  0
   -5.3470   -4.2640    0.8880 O   0  0  0  1  0  0
    0.8020   -0.0050   -0.9280 C   0  0  1  1  0  0
    0.8160    1.0960    0.1480 C   0  0  2  1  0  0
    1.9880   -0.9570   -0.7160 C   0  0  0  1  0  0
    3.2610   -0.2260   -0.4870 C   0  0  0  1  0  0
   -0.2910    2.0780   -0.0150 C   0  0  0  1  0  0
    3.2310    1.1420   -0.0820 C   0  0  0  1  0  0
    4.5080   -0.8780   -0.6660 C   0  0  0  1  0  0
    4.4440    1.8400    0.1180 C   0  0  0  1  0  0
   -0.5920    2.9810    1.0190 C   0  0  0  1  0  0
   -1.0400    2.1040   -1.2060 C   0  0  0  1  0  0
    5.7150   -0.1720   -0.4600 C   0  0  0  1  0  0
    5.6830    1.1870   -0.0710 C   0  0  0  1  0  0
   -0.5840   -1.3210    0.3290 C   0  0  0  1  0  0
   -2.0850    3.0320   -1.3580 C   0  0  0  1  0  0
   -1.6370    3.9090    0.8690 C   0  0  0  1  0  0
   -2.3860    3.9360   -0.3230 C   0  0  0  1  0  0
   -1.8490   -2.1030    0.4770 C   0  0  0  1  0  0
   -2.1360   -2.7510    1.6910 C   0  0  0  1  0  0
   -2.7530   -2.1900   -0.5960 C   0  0  0  1  0  0
   -3.9440   -2.9240   -0.4590 C   0  0  0  1  0  0
   -3.3260   -3.4880    1.8320 C   0  0  0  1  0  0
   -4.2300   -3.5740    0.7570 C   0  0  0  1  0  0
    0.8630    0.4400   -1.9230 H   0  0  0  1  0  0
    0.7220    0.6400    1.1350 H   0  0  0  1  0  0
    1.8020   -1.5930    0.1510 H   0  0  0  1  0  0
    2.0810   -1.6200   -1.5790 H   0  0  0  1  0  0
    4.4230    2.8790    0.4160 H   0  0  0  1  0  0
   -0.0180    2.9630    1.9350 H   0  0  0  1  0  0
   -0.8140    1.4120   -2.0030 H   0  0  0  1  0  0
    6.6620   -0.6700   -0.6010 H   0  0  0  1  0  0
   -1.4470   -2.6890    2.5180 H   0  0  0  1  0  0
   -2.5400   -1.6940   -1.5320 H   0  0  0  1  0  0
    5.4100   -2.5950   -1.1530 H   0  0  0  1  0  0
    6.7950    2.7830    0.3860 H   0  0  0  1  0  0
   -1.3870    4.7230    2.6560 H   0  0  0  1  0  0
   -3.8720    4.8150   -1.2880 H   0  0  0  1  0  0
   -5.6030   -3.5100   -1.3630 H   0  0  0  1  0  0
   -2.9610   -4.0260    3.7010 H   0  0  0  1  0  0
   -5.5340   -4.7060    1.7280 H   0  0  0  1  0  0
  1 13  1  0
  1 17  1  0
  2 12  1  0
  2 24  1  0
  3 18  1  0
  3 44  1  0
  4 23  1  0
  4 45  1  0
  5 25  1  0
  6 26  1  0
  6 46  1  0
  7 24  2  0
  8 27  1  0
  8 47  1  0
  9 31  1  0
  9 48  1  0
 10 32  1  0
 10 49  1  0
 11 33  1  0
 11 50  1  0
 12 13  1  0
 12 14  1  0
 12 34  1  0
 13 16  1  0
 13 35  1  0
 14 15  1  0
 14 36  1  0
 14 37  1  0
 15 17  2  0
 15 18  1  0
 16 20  2  0
 16 21  1  0
 17 19  1  0
 18 22  2  0
 19 23  2  0
 19 38  1  0
 20 26  1  0
 20 39  1  0
 21 25  2  0
 21 40  1  0
 22 23  1  0
 22 41  1  0
 24 28  1  0
 25 27  1  0
 26 27  2  0
 28 29  2  0
 28 30  1  0
 29 32  1  0
 29 42  1  0
 30 31  2  0
 30 43  1  0
 31 33  1  0
 32 33  2  0
M  CHG  1   5  -1
M  END
> <Name>
199472

> <AbsoluteEnergy>
46.0681

> <ConfNumber>
1

> <Ionization pH>
8.08_DPPPPPPP

> <IonizationIndex>
2

> <NumberOfIonizations>
2

> <NumberOfStereoisomers>
1

> <NumberOfTautomers>
2

> <OBJECTID>
9223375296738295821

> <PUBCHEM_ATOM_DEF_STEREO_COUNT>
2

> <PUBCHEM_ATOM_UDEF_STEREO_COUNT>
0

> <PUBCHEM_BONDANNOTATIONS>
13  16  6
15  17  8
15  18  8
16  20  8
16  21  8
17  19  8
18  22  8
19  23  8
12  2  5
20  26  8
21  25  8
22  23  8
25  27  8
26  27  8
28  29  8
28  30  8
29  32  8
30  31  8
31  33  8
32  33  8

> <PUBCHEM_BOND_DEF_STEREO_COUNT>
0

> <PUBCHEM_BOND_UDEF_STEREO_COUNT>
0

> <PUBCHEM_CACTVS_COMPLEXITY>
667

> <PUBCHEM_CACTVS_HBOND_ACCEPTOR>
11

> <PUBCHEM_CACTVS_HBOND_DONOR>
8

> <PUBCHEM_CACTVS_ROTATABLE_BOND>
4

> <PUBCHEM_CACTVS_SUBSKEYS>
AAADceB4PAAAAAAAAAAAAAAAAAAAAAAAAAA0YMEAAAAAAACRUAAAGgAACAAADBSgmAIwDoAABgCIAiDSCAACCAAkIAAAiAEGiMgNJzKGNRqCeSGlwBULuYfK7PzOIAABCAAIQABAAAIQABCAAAAAAAAAAA==

> <PUBCHEM_CACTVS_TAUTO_COUNT>
1000

> <PUBCHEM_CACTVS_TPSA>
197

> <PUBCHEM_COMPONENT_COUNT>
1

> <PUBCHEM_COMPOUND_CANONICALIZED>
1

> <PUBCHEM_COMPOUND_CID>
199472

> <PUBCHEM_COORDINATE_TYPE>
1
5
255

> <PUBCHEM_EXACT_MASS>
458.08491139

> <PUBCHEM_HEAVY_ATOM_COUNT>
33

> <PUBCHEM_ISOTOPIC_ATOM_COUNT>
0

> <PUBCHEM_IUPAC_CAS_NAME>
3,4,5-trihydroxybenzoic acid [(2S,3R)-5,7-dihydroxy-2-(3,4,5-trihydroxyphenyl)-3,4-dihydro-2H-1-benzopyran-3-yl] ester

> <PUBCHEM_IUPAC_INCHI>
InChI=1S/C22H18O11/c23-10-5-12(24)11-7-18(33-22(31)9-3-15(27)20(30)16(28)4-9)21(32-17(11)6-10)8-1-13(25)19(29)14(26)2-8/h1-6,18,21,23-30H,7H2/t18-,21+/m1/s1

> <PUBCHEM_IUPAC_INCHIKEY>
WMBWREPUVVBILR-NQIIRXRSSA-N

> <PUBCHEM_IUPAC_NAME>
[(2S,3R)-5,7-dihydroxy-2-(3,4,5-trihydroxyphenyl)-3,4-dihydro-2H-chromen-3-yl] 3,4,5-trihydroxybenzoate

> <PUBCHEM_IUPAC_NAME_MARKUP>
[(2<I>S</I>,3<I>R</I>)-5,7-dihydroxy-2-(3,4,5-trihydroxyphenyl)-3,4-dihydro-2<I>H</I>-chromen-3-yl] 3,4,5-trihydroxybenzoate

> <PUBCHEM_IUPAC_OPENEYE_NAME>
[(2S,3R)-5,7-dihydroxy-2-(3,4,5-trihydroxyphenyl)chroman-3-yl] 3,4,5-trihydroxybenzoate

> <PUBCHEM_IUPAC_SYSTEMATIC_NAME>
[(2S,3R)-5,7-bis(oxidanyl)-2-[3,4,5-tris(oxidanyl)phenyl]-3,4-dihydro-2H-chromen-3-yl] 3,4,5-tris(oxidanyl)benzoate

> <PUBCHEM_IUPAC_TRADITIONAL_NAME>
3,4,5-trihydroxybenzoic acid [(2S,3R)-5,7-dihydroxy-2-(3,4,5-trihydroxyphenyl)chroman-3-yl] ester

> <PUBCHEM_MOLECULAR_FORMULA>
C22H18O11

> <PUBCHEM_MOLECULAR_WEIGHT>
458.4

> <PUBCHEM_MONOISOTOPIC_WEIGHT>
458.08491139

> <PUBCHEM_OPENEYE_CAN_SMILES>
C1C(C(OC2=CC(=CC(=C21)O)O)C3=CC(=C(C(=C3)O)O)O)OC(=O)C4=CC(=C(C(=C4)O)O)O

> <PUBCHEM_OPENEYE_ISO_SMILES>
C1[C@H]([C@@H](OC2=CC(=CC(=C21)O)O)C3=CC(=C(C(=C3)O)O)O)OC(=O)C4=CC(=C(C(=C4)O)O)O

> <PUBCHEM_TOTAL_CHARGE>
0

> <PUBCHEM_XLOGP3>
1.2

> <RelativeEnergy>
0

> <StereoisomerIndex>
1

> <TautomerIndex>
1

> <LibDock Warning>
no hit found

> <ErrorText>
LibDock failed

$$$$
358832
  SciTegic09112317153D

 48 50  0  0  0  0            999 V2000
   -0.3100    0.1100    0.1060 O   0  0  0  1  0  0
   -2.7250    0.9950   -0.8860 O   0  0  0  1  0  0
   -5.0520   -0.3540   -0.2880 O   0  0  0  1  0  0
   -4.9760   -2.5990    1.3050 O   0  0  0  1  0  0
   -2.5850   -3.5070    2.3040 O   0  0  0  1  0  0
    0.1270   -3.1330    2.4460 O   0  0  0  1  0  0
    4.2350    1.1420   -2.7160 O   0  0  0  1  0  0
    5.4470    2.7490   -0.8630 O   0  0  0  1  0  0
   -1.4100   -1.7160    1.2210 C   0  0  0  1  0  0
   -1.4490   -0.5560    0.4010 C   0  0  0  1  0  0
   -2.6860   -0.0970   -0.1100 C   0  0  0  1  0  0
    0.9080   -0.2630    0.5530 C   0  0  0  1  0  0
   -2.6090   -2.4130    1.5310 C   0  0  0  1  0  0
   -3.8800   -0.7910    0.1970 C   0  0  0  1  0  0
   -0.0940   -2.1750    1.7420 C   0  0  0  1  0  0
   -3.8410   -1.9450    1.0160 C   0  0  0  1  0  0
    2.1120    0.5360    0.1770 C   0  0  0  1  0  0
    1.0660   -1.3500    1.3390 C   0  0  0  1  0  0
    2.6270    0.4650   -1.1300 C   0  0  0  1  0  0
    2.7360    1.3620    1.1290 C   0  0  0  1  0  0
    3.7590    1.2160   -1.4890 C   0  0  0  1  0  0
    4.3820    2.0430   -0.5350 C   0  0  0  1  0  0
    3.8700    2.1140    0.7700 C   0  0  0  1  0  0
   -1.7720    1.1060   -1.9310 C   0  0  0  1  0  0
   -5.7640   -1.2030   -1.1770 C   0  0  0  1  0  0
   -5.2080   -2.9700    2.6570 C   0  0  0  1  0  0
    5.3810    1.9170   -3.0340 C   0  0  0  1  0  0
    5.9140    3.7170    0.0650 C   0  0  0  1  0  0
    2.0480   -1.6390    1.6900 H   0  0  0  1  0  0
    2.1510   -0.1690   -1.8670 H   0  0  0  1  0  0
    2.3500    1.4240    2.1350 H   0  0  0  1  0  0
    4.3460    2.7470    1.5040 H   0  0  0  1  0  0
   -2.1090    1.5770   -2.8540 H   0  0  0  1  0  0
   -1.4170    0.1050   -2.1770 H   0  0  0  1  0  0
   -0.9210    1.6780   -1.5580 H   0  0  0  1  0  0
   -6.2370   -0.7250   -2.0350 H   0  0  0  1  0  0
   -6.5400   -1.7160   -0.6110 H   0  0  0  1  0  0
   -5.0720   -1.9570   -1.5540 H   0  0  0  1  0  0
   -6.2470   -2.9970    2.9860 H   0  0  0  1  0  0
   -4.6730   -2.2680    3.2980 H   0  0  0  1  0  0
   -4.7820   -3.9590    2.8150 H   0  0  0  1  0  0
    5.7560    1.8400   -4.0550 H   0  0  0  1  0  0
    6.1880    1.6250   -2.3600 H   0  0  0  1  0  0
    5.1510    2.9660   -2.8420 H   0  0  0  1  0  0
    6.7840    4.2120   -0.3680 H   0  0  0  1  0  0
    5.0790    4.3620    0.3360 H   0  0  0  1  0  0
    6.2410    3.1970    0.9660 H   0  0  0  1  0  0
   -1.8990   -3.5950    2.9800 H   0  0  0  1  0  0
  1 10  1  0
  1 12  1  0
  2 11  1  0
  2 24  1  0
  3 14  1  0
  3 25  1  0
  4 16  1  0
  4 26  1  0
  5 13  1  0
  5 48  1  0
  6 15  2  0
  7 21  1  0
  7 27  1  0
  8 22  1  0
  8 28  1  0
  9 10  2  0
  9 13  1  0
  9 15  1  0
 10 11  1  0
 11 14  2  0
 12 17  1  0
 12 18  2  0
 13 16  2  0
 14 16  1  0
 15 18  1  0
 17 19  2  0
 17 20  1  0
 18 29  1  0
 19 21  1  0
 19 30  1  0
 20 23  2  0
 20 31  1  0
 21 22  2  0
 22 23  1  0
 23 32  1  0
 24 33  1  0
 24 34  1  0
 24 35  1  0
 25 36  1  0
 25 37  1  0
 25 38  1  0
 26 39  1  0
 26 40  1  0
 26 41  1  0
 27 42  1  0
 27 43  1  0
 27 44  1  0
 28 45  1  0
 28 46  1  0
 28 47  1  0
M  END
> <Name>
358832

> <AbsoluteEnergy>
87.6709

> <ConfNumber>
1

> <Ionization pH>
7.5

> <IonizationIndex>
1

> <NumberOfIonizations>
1

> <NumberOfStereoisomers>
1

> <NumberOfTautomers>
2

> <OBJECTID>
9223375305328230413

> <PUBCHEM_ATOM_DEF_STEREO_COUNT>
0

> <PUBCHEM_ATOM_UDEF_STEREO_COUNT>
0

> <PUBCHEM_BONDANNOTATIONS>
1  10  8
1  12  8
10  11  8
11  14  8
12  18  8
13  16  8
14  16  8
15  18  8
17  19  8
17  20  8
19  21  8
20  23  8
21  22  8
22  23  8
9  10  8
9  13  8
9  15  8

> <PUBCHEM_BOND_DEF_STEREO_COUNT>
0

> <PUBCHEM_BOND_UDEF_STEREO_COUNT>
0

> <PUBCHEM_CACTVS_COMPLEXITY>
579

> <PUBCHEM_CACTVS_HBOND_ACCEPTOR>
8

> <PUBCHEM_CACTVS_HBOND_DONOR>
1

> <PUBCHEM_CACTVS_ROTATABLE_BOND>
6

> <PUBCHEM_CACTVS_SUBSKEYS>
AAADceB4PAAAAAAAAAAAAAAAAAAAAAAAAAAwYIAAAAAAAACBQAAAGgAACAAADASAmAIyBoAABgCIAqBSAAACCAAkIAAIiAEGiMgNJzaGNRqCeWOl4BULuQfK7LzOIQABCAAIQABCAAIQABCAAAAAAAAAAA==

> <PUBCHEM_CACTVS_TAUTO_COUNT>
4

> <PUBCHEM_CACTVS_TPSA>
92.7

> <PUBCHEM_COMPONENT_COUNT>
1

> <PUBCHEM_COMPOUND_CANONICALIZED>
1

> <PUBCHEM_COMPOUND_CID>
358832

> <PUBCHEM_COORDINATE_TYPE>
1
5
255

> <PUBCHEM_EXACT_MASS>
388.11581759

> <PUBCHEM_HEAVY_ATOM_COUNT>
28

> <PUBCHEM_ISOTOPIC_ATOM_COUNT>
0

> <PUBCHEM_IUPAC_CAS_NAME>
2-(3,4-dimethoxyphenyl)-5-hydroxy-6,7,8-trimethoxy-1-benzopyran-4-one

> <PUBCHEM_IUPAC_INCHI>
InChI=1S/C20H20O8/c1-23-12-7-6-10(8-14(12)24-2)13-9-11(21)15-16(22)18(25-3)20(27-5)19(26-4)17(15)28-13/h6-9,22H,1-5H3

> <PUBCHEM_IUPAC_INCHIKEY>
DOFJNFPSMUCECH-UHFFFAOYSA-N

> <PUBCHEM_IUPAC_NAME>
2-(3,4-dimethoxyphenyl)-5-hydroxy-6,7,8-trimethoxychromen-4-one

> <PUBCHEM_IUPAC_NAME_MARKUP>
2-(3,4-dimethoxyphenyl)-5-hydroxy-6,7,8-trimethoxychromen-4-one

> <PUBCHEM_IUPAC_OPENEYE_NAME>
2-(3,4-dimethoxyphenyl)-5-hydroxy-6,7,8-trimethoxy-chromen-4-one

> <PUBCHEM_IUPAC_SYSTEMATIC_NAME>
2-(3,4-dimethoxyphenyl)-6,7,8-trimethoxy-5-oxidanyl-chromen-4-one

> <PUBCHEM_IUPAC_TRADITIONAL_NAME>
2-(3,4-dimethoxyphenyl)-5-hydroxy-6,7,8-trimethoxy-chromone

> <PUBCHEM_MOLECULAR_FORMULA>
C20H20O8

> <PUBCHEM_MOLECULAR_WEIGHT>
388.4

> <PUBCHEM_MONOISOTOPIC_WEIGHT>
388.11581759

> <PUBCHEM_OPENEYE_CAN_SMILES>
COC1=C(C=C(C=C1)C2=CC(=O)C3=C(C(=C(C(=C3O2)OC)OC)OC)O)OC

> <PUBCHEM_OPENEYE_ISO_SMILES>
COC1=C(C=C(C=C1)C2=CC(=O)C3=C(C(=C(C(=C3O2)OC)OC)OC)O)OC

> <PUBCHEM_TOTAL_CHARGE>
0

> <PUBCHEM_XLOGP3_AA>
3.2

> <RelativeEnergy>
0

> <StereoisomerIndex>
1

> <TautomerIndex>
1

> <LibDock Warning>
no hit found

> <ErrorText>
LibDock failed

$$$$
5280343
  SciTegic09112317153D

 31 33  0  0  0  0            999 V2000
    0.7830    0.4810   -0.1330 O   0  0  0  1  0  0
   -1.5310   -2.1340   -0.0240 O   0  5  0  1  0  0
    3.4190   -3.5160    0.2260 O   0  0  0  1  0  0
    0.6900   -3.5280    0.1360 O   0  0  0  1  0  0
    5.5530    0.7380   -0.0120 O   0  0  0  1  0  0
   -5.0200    0.6310    1.1940 O   0  0  0  1  0  0
   -5.1560    2.8130   -0.4490 O   0  0  0  1  0  0
    2.0630   -1.5430    0.0440 C   0  0  0  1  0  0
    1.9840   -0.1300   -0.0570 C   0  0  0  1  0  0
   -0.3960   -0.1780   -0.1220 C   0  0  0  1  0  0
   -1.6620    0.6180   -0.2080 C   0  0  0  1  0  0
   -0.4530   -1.5310   -0.0330 C   0  0  0  1  0  0
    0.7980   -2.3260    0.0580 C   0  0  0  1  0  0
    3.3270   -2.1830    0.1300 C   0  0  0  1  0  0
    3.1700    0.6420   -0.0770 C   0  0  0  1  0  0
    4.4300    0.0050    0.0060 C   0  0  0  1  0  0
   -2.7830    0.2430    0.5550 C   0  0  0  1  0  0
    4.5070   -1.4050    0.1110 C   0  0  0  1  0  0
   -1.7330    1.7400   -1.0520 C   0  0  0  1  0  0
   -3.9740    0.9870    0.4770 C   0  0  0  1  0  0
   -2.9240    2.4840   -1.1310 C   0  0  0  1  0  0
   -4.0450    2.1090   -0.3690 C   0  0  0  1  0  0
    3.1120    1.7170   -0.1580 H   0  0  0  1  0  0
   -2.7350   -0.6190    1.2070 H   0  0  0  1  0  0
    5.4720   -1.8860    0.1760 H   0  0  0  1  0  0
   -0.8780    2.0340   -1.6430 H   0  0  0  1  0  0
   -2.9740    3.3440   -1.7810 H   0  0  0  1  0  0
    4.2920   -3.9270    0.2840 H   0  0  0  1  0  0
    5.4880    1.6990   -0.0840 H   0  0  0  1  0  0
   -5.8330    1.1480    1.1350 H   0  0  0  1  0  0
   -5.1890    3.5820   -1.0330 H   0  0  0  1  0  0
  1  9  1  0
  1 10  1  0
  2 12  1  0
  3 14  1  0
  3 28  1  0
  4 13  2  0
  5 16  1  0
  5 29  1  0
  6 20  1  0
  6 30  1  0
  7 22  1  0
  7 31  1  0
  8  9  2  0
  8 13  1  0
  8 14  1  0
  9 15  1  0
 10 11  1  0
 10 12  2  0
 11 17  2  0
 11 19  1  0
 12 13  1  0
 14 18  2  0
 15 16  2  0
 15 23  1  0
 16 18  1  0
 17 20  1  0
 17 24  1  0
 18 25  1  0
 19 21  2  0
 19 26  1  0
 20 22  2  0
 21 22  1  0
 21 27  1  0
M  CHG  1   2  -1
M  END
> <Name>
5280343

> <AbsoluteEnergy>
37.0259

> <ConfNumber>
1

> <Ionization pH>
7.5

> <IonizationIndex>
1

> <NumberOfIonizations>
1

> <NumberOfStereoisomers>
1

> <NumberOfTautomers>
4

> <OBJECTID>
9223375386932609037

> <PUBCHEM_ATOM_DEF_STEREO_COUNT>
0

> <PUBCHEM_ATOM_UDEF_STEREO_COUNT>
0

> <PUBCHEM_BONDANNOTATIONS>
1  10  8
1  9  8
10  12  8
11  17  8
11  19  8
12  13  8
14  18  8
15  16  8
16  18  8
17  20  8
19  21  8
20  22  8
21  22  8
8  13  8
8  14  8
8  9  8
9  15  8

> <PUBCHEM_BOND_DEF_STEREO_COUNT>
0

> <PUBCHEM_BOND_UDEF_STEREO_COUNT>
0

> <PUBCHEM_CACTVS_COMPLEXITY>
488

> <PUBCHEM_CACTVS_HBOND_ACCEPTOR>
7

> <PUBCHEM_CACTVS_HBOND_DONOR>
5

> <PUBCHEM_CACTVS_ROTATABLE_BOND>
1

> <PUBCHEM_CACTVS_SUBSKEYS>
AAADccBwOAAAAAAAAAAAAAAAAAAAAAAAAAAwYIAAAAAAAACBQAAAGgAACAAADASAmAAwBoAABgCIAqBSAAICCAAkIAAIiAFGiMgNJzaGNRqCeWGl4BUJuQfI7LzOIAABCAAIQABAAAIQABCAAAAAAAAAAA==

> <PUBCHEM_CACTVS_TAUTO_COUNT>
435

> <PUBCHEM_CACTVS_TPSA>
127

> <PUBCHEM_COMPONENT_COUNT>
1

> <PUBCHEM_COMPOUND_CANONICALIZED>
1

> <PUBCHEM_COMPOUND_CID>
5280343

> <PUBCHEM_COORDINATE_TYPE>
1
5
255

> <PUBCHEM_EXACT_MASS>
302.04265265

> <PUBCHEM_HEAVY_ATOM_COUNT>
22

> <PUBCHEM_ISOTOPIC_ATOM_COUNT>
0

> <PUBCHEM_IUPAC_CAS_NAME>
2-(3,4-dihydroxyphenyl)-3,5,7-trihydroxy-1-benzopyran-4-one

> <PUBCHEM_IUPAC_INCHI>
InChI=1S/C15H10O7/c16-7-4-10(19)12-11(5-7)22-15(14(21)13(12)20)6-1-2-8(17)9(18)3-6/h1-5,16-19,21H

> <PUBCHEM_IUPAC_INCHIKEY>
REFJWTPEDVJJIY-UHFFFAOYSA-N

> <PUBCHEM_IUPAC_NAME>
2-(3,4-dihydroxyphenyl)-3,5,7-trihydroxychromen-4-one

> <PUBCHEM_IUPAC_NAME_MARKUP>
2-(3,4-dihydroxyphenyl)-3,5,7-trihydroxychromen-4-one

> <PUBCHEM_IUPAC_OPENEYE_NAME>
2-(3,4-dihydroxyphenyl)-3,5,7-trihydroxy-chromen-4-one

> <PUBCHEM_IUPAC_SYSTEMATIC_NAME>
2-[3,4-bis(oxidanyl)phenyl]-3,5,7-tris(oxidanyl)chromen-4-one

> <PUBCHEM_IUPAC_TRADITIONAL_NAME>
2-(3,4-dihydroxyphenyl)-3,5,7-trihydroxy-chromone

> <PUBCHEM_MOLECULAR_FORMULA>
C15H10O7

> <PUBCHEM_MOLECULAR_WEIGHT>
302.23

> <PUBCHEM_MONOISOTOPIC_WEIGHT>
302.04265265

> <PUBCHEM_OPENEYE_CAN_SMILES>
C1=CC(=C(C=C1C2=C(C(=O)C3=C(C=C(C=C3O2)O)O)O)O)O

> <PUBCHEM_OPENEYE_ISO_SMILES>
C1=CC(=C(C=C1C2=C(C(=O)C3=C(C=C(C=C3O2)O)O)O)O)O

> <PUBCHEM_TOTAL_CHARGE>
0

> <PUBCHEM_XLOGP3>
1.5

> <RelativeEnergy>
0

> <StereoisomerIndex>
1

> <TautomerIndex>
1

> <LibDock Warning>
no hit found

> <ErrorText>
LibDock failed

$$$$
5280343
  SciTegic09112317153D

 31 33  0  0  0  0            999 V2000
    0.9980   -0.4860   -0.0510 O   0  0  0  1  0  0
   -1.5520    1.9390   -0.0070 O   0  5  0  1  0  0
    3.0930    3.6830    1.2060 O   0  0  0  1  0  0
    0.4880    3.5870    0.7030 O   0  0  0  1  0  0
    5.6570   -0.1710    0.8210 O   0  0  0  1  0  0
   -4.8810   -1.2270    0.3360 O   0  0  0  1  0  0
   -4.5820   -3.1450   -1.5920 O   0  0  0  1  0  0
    1.9180    1.7380    0.5760 C   0  0  0  1  0  0
    2.0530    0.2870    0.2950 C   0  0  0  1  0  0
   -0.2150    0.1040   -0.1450 C   0  0  0  1  0  0
   -1.3780   -0.7600   -0.5300 C   0  0  0  1  0  0
   -0.4330    1.4250    0.0880 C   0  0  0  1  0  0
    0.6940    2.2910    0.4710 C   0  0  0  1  0  0
    3.1310    2.5000    0.9550 C   0  0  0  1  0  0
    3.2680   -0.2950    0.3840 C   0  0  0  1  0  0
    4.4870    0.4580    0.7540 C   0  0  0  1  0  0
   -2.6230   -0.5860    0.1000 C   0  0  0  1  0  0
    4.4150    1.7770    1.0240 C   0  0  0  1  0  0
   -1.2250   -1.7470   -1.5190 C   0  0  0  1  0  0
   -3.7160   -1.3950   -0.2570 C   0  0  0  1  0  0
   -2.3160   -2.5550   -1.8780 C   0  0  0  1  0  0
   -3.5630   -2.3820   -1.2500 C   0  0  0  1  0  0
    3.3590   -1.3520    0.1770 H   0  0  0  1  0  0
   -2.7470    0.1720    0.8610 H   0  0  0  1  0  0
    5.3120    2.3160    1.2940 H   0  0  0  1  0  0
   -0.2710   -1.8880   -2.0080 H   0  0  0  1  0  0
   -2.1970   -3.3130   -2.6390 H   0  0  0  1  0  0
    5.6960   -1.1180    0.6270 H   0  0  0  1  0  0
   -5.6270   -1.7860    0.0830 H   0  0  0  1  0  0
   -4.4620   -3.8180   -2.2730 H   0  0  0  1  0  0
   -0.4060    3.9470    0.6160 H   0  0  0  1  0  0
  1  9  1  0
  1 10  1  0
  2 12  1  0
  3 14  2  0
  4 13  1  0
  4 31  1  0
  5 16  1  0
  5 28  1  0
  6 20  1  0
  6 29  1  0
  7 22  1  0
  7 30  1  0
  8  9  1  0
  8 13  2  0
  8 14  1  0
  9 15  2  0
 10 11  1  0
 10 12  2  0
 11 17  2  0
 11 19  1  0
 12 13  1  0
 14 18  1  0
 15 16  1  0
 15 23  1  0
 16 18  2  0
 17 20  1  0
 17 24  1  0
 18 25  1  0
 19 21  2  0
 19 26  1  0
 20 22  2  0
 21 22  1  0
 21 27  1  0
M  CHG  1   2  -1
M  END
> <Name>
5280343

> <AbsoluteEnergy>
32.1561

> <ConfNumber>
1

> <Ionization pH>
7.5

> <IonizationIndex>
1

> <NumberOfIonizations>
1

> <NumberOfStereoisomers>
1

> <NumberOfTautomers>
4

> <OBJECTID>
9223375391227576333

> <PUBCHEM_ATOM_DEF_STEREO_COUNT>
0

> <PUBCHEM_ATOM_UDEF_STEREO_COUNT>
0

> <PUBCHEM_BONDANNOTATIONS>
1  10  8
1  9  8
10  12  8
11  17  8
11  19  8
12  13  8
14  18  8
15  16  8
16  18  8
17  20  8
19  21  8
20  22  8
21  22  8
8  13  8
8  14  8
8  9  8
9  15  8

> <PUBCHEM_BOND_DEF_STEREO_COUNT>
0

> <PUBCHEM_BOND_UDEF_STEREO_COUNT>
0

> <PUBCHEM_CACTVS_COMPLEXITY>
488

> <PUBCHEM_CACTVS_HBOND_ACCEPTOR>
7

> <PUBCHEM_CACTVS_HBOND_DONOR>
5

> <PUBCHEM_CACTVS_ROTATABLE_BOND>
1

> <PUBCHEM_CACTVS_SUBSKEYS>
AAADccBwOAAAAAAAAAAAAAAAAAAAAAAAAAAwYIAAAAAAAACBQAAAGgAACAAADASAmAAwBoAABgCIAqBSAAICCAAkIAAIiAFGiMgNJzaGNRqCeWGl4BUJuQfI7LzOIAABCAAIQABAAAIQABCAAAAAAAAAAA==

> <PUBCHEM_CACTVS_TAUTO_COUNT>
435

> <PUBCHEM_CACTVS_TPSA>
127

> <PUBCHEM_COMPONENT_COUNT>
1

> <PUBCHEM_COMPOUND_CANONICALIZED>
1

> <PUBCHEM_COMPOUND_CID>
5280343

> <PUBCHEM_COORDINATE_TYPE>
1
5
255

> <PUBCHEM_EXACT_MASS>
302.04265265

> <PUBCHEM_HEAVY_ATOM_COUNT>
22

> <PUBCHEM_ISOTOPIC_ATOM_COUNT>
0

> <PUBCHEM_IUPAC_CAS_NAME>
2-(3,4-dihydroxyphenyl)-3,5,7-trihydroxy-1-benzopyran-4-one

> <PUBCHEM_IUPAC_INCHI>
InChI=1S/C15H10O7/c16-7-4-10(19)12-11(5-7)22-15(14(21)13(12)20)6-1-2-8(17)9(18)3-6/h1-5,16-19,21H

> <PUBCHEM_IUPAC_INCHIKEY>
REFJWTPEDVJJIY-UHFFFAOYSA-N

> <PUBCHEM_IUPAC_NAME>
2-(3,4-dihydroxyphenyl)-3,5,7-trihydroxychromen-4-one

> <PUBCHEM_IUPAC_NAME_MARKUP>
2-(3,4-dihydroxyphenyl)-3,5,7-trihydroxychromen-4-one

> <PUBCHEM_IUPAC_OPENEYE_NAME>
2-(3,4-dihydroxyphenyl)-3,5,7-trihydroxy-chromen-4-one

> <PUBCHEM_IUPAC_SYSTEMATIC_NAME>
2-[3,4-bis(oxidanyl)phenyl]-3,5,7-tris(oxidanyl)chromen-4-one

> <PUBCHEM_IUPAC_TRADITIONAL_NAME>
2-(3,4-dihydroxyphenyl)-3,5,7-trihydroxy-chromone

> <PUBCHEM_MOLECULAR_FORMULA>
C15H10O7

> <PUBCHEM_MOLECULAR_WEIGHT>
302.23

> <PUBCHEM_MONOISOTOPIC_WEIGHT>
302.04265265

> <PUBCHEM_OPENEYE_CAN_SMILES>
C1=CC(=C(C=C1C2=C(C(=O)C3=C(C=C(C=C3O2)O)O)O)O)O

> <PUBCHEM_OPENEYE_ISO_SMILES>
C1=CC(=C(C=C1C2=C(C(=O)C3=C(C=C(C=C3O2)O)O)O)O)O

> <PUBCHEM_TOTAL_CHARGE>
0

> <PUBCHEM_XLOGP3>
1.5

> <RelativeEnergy>
0

> <StereoisomerIndex>
1

> <TautomerIndex>
2

> <LibDock Warning>
no hit found

> <ErrorText>
LibDock failed

$$$$
5280343
  SciTegic09112317153D

 31 33  0  0  0  0            999 V2000
    0.8650   -0.6660   -0.0160 O   0  0  0  1  0  0
   -1.3890    2.0120    0.3360 O   0  5  0  1  0  0
    3.4810    3.3440    1.2150 O   0  0  0  1  0  0
    0.8670    3.4000    0.9160 O   0  0  0  1  0  0
    5.4830   -0.7790    0.4900 O   0  0  0  1  0  0
   -2.8220   -3.1820   -2.5980 O   0  0  0  1  0  0
   -5.0840   -2.6410   -1.1560 O   0  0  0  1  0  0
    2.0760    1.4180    0.6030 C   0  0  0  1  0  0
    2.0220   -0.0290    0.2640 C   0  0  0  1  0  0
   -0.2810    0.0530    0.0150 C   0  0  0  1  0  0
   -1.5590   -0.6640   -0.2970 C   0  0  0  1  0  0
   -0.3300    1.3770    0.3140 C   0  0  0  1  0  0
    0.9140    2.1000    0.6250 C   0  0  0  1  0  0
    3.3890    2.0530    0.9040 C   0  0  0  1  0  0
    3.1640   -0.7440    0.2320 C   0  0  0  1  0  0
    4.4690   -0.1250    0.5250 C   0  0  0  1  0  0
   -1.5980   -1.6150   -1.3300 C   0  0  0  1  0  0
    4.5140    1.3080    0.8630 C   0  0  0  1  0  0
   -2.7210   -0.3870    0.4430 C   0  0  0  1  0  0
   -2.7950   -2.2910   -1.6270 C   0  0  0  1  0  0
   -3.9180   -1.0610    0.1480 C   0  0  0  1  0  0
   -3.9570   -2.0140   -0.8870 C   0  0  0  1  0  0
    3.1270   -1.7950   -0.0140 H   0  0  0  1  0  0
   -0.7070   -1.8340   -1.9020 H   0  0  0  1  0  0
    5.4670    1.7690    1.0840 H   0  0  0  1  0  0
   -2.7010    0.3440    1.2400 H   0  0  0  1  0  0
   -4.8090   -0.8460    0.7190 H   0  0  0  1  0  0
    4.3460    3.7250    1.4060 H   0  0  0  1  0  0
   -3.6500   -3.6410   -2.7950 H   0  0  0  1  0  0
   -5.8750   -2.4400   -0.6390 H   0  0  0  1  0  0
    0.0140    3.8530    0.9180 H   0  0  0  1  0  0
  1  9  1  0
  1 10  1  0
  2 12  1  0
  3 14  1  0
  3 28  1  0
  4 13  1  0
  4 31  1  0
  5 16  2  0
  6 20  1  0
  6 29  1  0
  7 22  1  0
  7 30  1  0
  8  9  1  0
  8 13  2  0
  8 14  1  0
  9 15  2  0
 10 11  1  0
 10 12  2  0
 11 17  2  0
 11 19  1  0
 12 13  1  0
 14 18  2  0
 15 16  1  0
 15 23  1  0
 16 18  1  0
 17 20  1  0
 17 24  1  0
 18 25  1  0
 19 21  2  0
 19 26  1  0
 20 22  2  0
 21 22  1  0
 21 27  1  0
M  CHG  1   2  -1
M  END
> <Name>
5280343

> <AbsoluteEnergy>
32.4147

> <ConfNumber>
1

> <Ionization pH>
7.5

> <IonizationIndex>
1

> <NumberOfIonizations>
1

> <NumberOfStereoisomers>
1

> <NumberOfTautomers>
4

> <OBJECTID>
9223375395522543629

> <PUBCHEM_ATOM_DEF_STEREO_COUNT>
0

> <PUBCHEM_ATOM_UDEF_STEREO_COUNT>
0

> <PUBCHEM_BONDANNOTATIONS>
1  10  8
1  9  8
10  12  8
11  17  8
11  19  8
12  13  8
14  18  8
15  16  8
16  18  8
17  20  8
19  21  8
20  22  8
21  22  8
8  13  8
8  14  8
8  9  8
9  15  8

> <PUBCHEM_BOND_DEF_STEREO_COUNT>
0

> <PUBCHEM_BOND_UDEF_STEREO_COUNT>
0

> <PUBCHEM_CACTVS_COMPLEXITY>
488

> <PUBCHEM_CACTVS_HBOND_ACCEPTOR>
7

> <PUBCHEM_CACTVS_HBOND_DONOR>
5

> <PUBCHEM_CACTVS_ROTATABLE_BOND>
1

> <PUBCHEM_CACTVS_SUBSKEYS>
AAADccBwOAAAAAAAAAAAAAAAAAAAAAAAAAAwYIAAAAAAAACBQAAAGgAACAAADASAmAAwBoAABgCIAqBSAAICCAAkIAAIiAFGiMgNJzaGNRqCeWGl4BUJuQfI7LzOIAABCAAIQABAAAIQABCAAAAAAAAAAA==

> <PUBCHEM_CACTVS_TAUTO_COUNT>
435

> <PUBCHEM_CACTVS_TPSA>
127

> <PUBCHEM_COMPONENT_COUNT>
1

> <PUBCHEM_COMPOUND_CANONICALIZED>
1

> <PUBCHEM_COMPOUND_CID>
5280343

> <PUBCHEM_COORDINATE_TYPE>
1
5
255

> <PUBCHEM_EXACT_MASS>
302.04265265

> <PUBCHEM_HEAVY_ATOM_COUNT>
22

> <PUBCHEM_ISOTOPIC_ATOM_COUNT>
0

> <PUBCHEM_IUPAC_CAS_NAME>
2-(3,4-dihydroxyphenyl)-3,5,7-trihydroxy-1-benzopyran-4-one

> <PUBCHEM_IUPAC_INCHI>
InChI=1S/C15H10O7/c16-7-4-10(19)12-11(5-7)22-15(14(21)13(12)20)6-1-2-8(17)9(18)3-6/h1-5,16-19,21H

> <PUBCHEM_IUPAC_INCHIKEY>
REFJWTPEDVJJIY-UHFFFAOYSA-N

> <PUBCHEM_IUPAC_NAME>
2-(3,4-dihydroxyphenyl)-3,5,7-trihydroxychromen-4-one

> <PUBCHEM_IUPAC_NAME_MARKUP>
2-(3,4-dihydroxyphenyl)-3,5,7-trihydroxychromen-4-one

> <PUBCHEM_IUPAC_OPENEYE_NAME>
2-(3,4-dihydroxyphenyl)-3,5,7-trihydroxy-chromen-4-one

> <PUBCHEM_IUPAC_SYSTEMATIC_NAME>
2-[3,4-bis(oxidanyl)phenyl]-3,5,7-tris(oxidanyl)chromen-4-one

> <PUBCHEM_IUPAC_TRADITIONAL_NAME>
2-(3,4-dihydroxyphenyl)-3,5,7-trihydroxy-chromone

> <PUBCHEM_MOLECULAR_FORMULA>
C15H10O7

> <PUBCHEM_MOLECULAR_WEIGHT>
302.23

> <PUBCHEM_MONOISOTOPIC_WEIGHT>
302.04265265

> <PUBCHEM_OPENEYE_CAN_SMILES>
C1=CC(=C(C=C1C2=C(C(=O)C3=C(C=C(C=C3O2)O)O)O)O)O

> <PUBCHEM_OPENEYE_ISO_SMILES>
C1=CC(=C(C=C1C2=C(C(=O)C3=C(C=C(C=C3O2)O)O)O)O)O

> <PUBCHEM_TOTAL_CHARGE>
0

> <PUBCHEM_XLOGP3>
1.5

> <RelativeEnergy>
0

> <StereoisomerIndex>
1

> <TautomerIndex>
3

> <LibDock Warning>
no hit found

> <ErrorText>
LibDock failed

$$$$
5280343
  SciTegic09112317153D

 31 33  0  0  0  0            999 V2000
    0.1470    0.6680    0.0470 O   0  0  0  1  0  0
   -0.6350   -2.8190   -0.0450 O   0  5  0  1  0  0
    4.1330   -1.7910   -0.9960 O   0  0  0  1  0  0
    1.8050   -3.0960   -0.5900 O   0  0  0  1  0  0
    4.2720    2.9590   -0.6700 O   0  0  0  1  0  0
   -4.0990    2.7280    1.0960 O   0  0  0  1  0  0
   -5.8690    0.6130    1.2720 O   0  0  0  1  0  0
    2.1120   -0.6040   -0.4710 C   0  0  0  1  0  0
    1.4610    0.6350   -0.2380 C   0  0  0  1  0  0
   -0.6380   -0.4260    0.1270 C   0  0  0  1  0  0
   -1.9530   -0.2170    0.4140 C   0  0  0  1  0  0
    0.0000   -1.7660   -0.1050 C   0  0  0  1  0  0
    1.3230   -1.8670   -0.3960 C   0  0  0  1  0  0
    3.4980   -0.6310   -0.7730 C   0  0  0  1  0  0
    2.1960    1.8420   -0.3070 C   0  0  0  1  0  0
    3.5780    1.8140   -0.6050 C   0  0  0  1  0  0
   -2.4350    1.1780    0.6310 C   0  0  0  1  0  0
    4.2270    0.5800   -0.8400 C   0  0  0  1  0  0
   -2.9760   -1.2950    0.5330 C   0  0  0  1  0  0
   -3.7220    1.4650    0.9140 C   0  0  0  1  0  0
   -4.2630   -1.0140    0.8160 C   0  0  0  1  0  0
   -4.7110    0.3750    1.0200 C   0  0  0  1  0  0
    1.7010    2.7850   -0.1270 H   0  0  0  1  0  0
   -1.7480    2.0080    0.5630 H   0  0  0  1  0  0
    5.2840    0.5600   -1.0680 H   0  0  0  1  0  0
   -2.7600   -2.3400    0.4020 H   0  0  0  1  0  0
   -4.9800   -1.8190    0.8950 H   0  0  0  1  0  0
    3.6510   -2.5240   -1.3980 H   0  0  0  1  0  0
    5.2150    2.9300   -0.8770 H   0  0  0  1  0  0
   -5.0230    2.9220    1.2990 H   0  0  0  1  0  0
    1.2110   -3.8540   -0.5210 H   0  0  0  1  0  0
  1  9  1  0
  1 10  1  0
  2 12  1  0
  3 14  1  0
  3 28  1  0
  4 13  1  0
  4 31  1  0
  5 16  1  0
  5 29  1  0
  6 20  1  0
  6 30  1  0
  7 22  2  0
  8  9  2  0
  8 13  1  0
  8 14  1  0
  9 15  1  0
 10 11  2  0
 10 12  1  0
 11 17  1  0
 11 19  1  0
 12 13  2  0
 14 18  2  0
 15 16  2  0
 15 23  1  0
 16 18  1  0
 17 20  2  0
 17 24  1  0
 18 25  1  0
 19 21  2  0
 19 26  1  0
 20 22  1  0
 21 22  1  0
 21 27  1  0
M  CHG  1   2  -1
M  END
> <Name>
5280343

> <AbsoluteEnergy>
34.4398

> <ConfNumber>
1

> <Ionization pH>
7.5

> <IonizationIndex>
1

> <NumberOfIonizations>
1

> <NumberOfStereoisomers>
1

> <NumberOfTautomers>
4

> <OBJECTID>
9223375399817510925

> <PUBCHEM_ATOM_DEF_STEREO_COUNT>
0

> <PUBCHEM_ATOM_UDEF_STEREO_COUNT>
0

> <PUBCHEM_BONDANNOTATIONS>
1  10  8
1  9  8
10  12  8
11  17  8
11  19  8
12  13  8
14  18  8
15  16  8
16  18  8
17  20  8
19  21  8
20  22  8
21  22  8
8  13  8
8  14  8
8  9  8
9  15  8

> <PUBCHEM_BOND_DEF_STEREO_COUNT>
0

> <PUBCHEM_BOND_UDEF_STEREO_COUNT>
0

> <PUBCHEM_CACTVS_COMPLEXITY>
488

> <PUBCHEM_CACTVS_HBOND_ACCEPTOR>
7

> <PUBCHEM_CACTVS_HBOND_DONOR>
5

> <PUBCHEM_CACTVS_ROTATABLE_BOND>
1

> <PUBCHEM_CACTVS_SUBSKEYS>
AAADccBwOAAAAAAAAAAAAAAAAAAAAAAAAAAwYIAAAAAAAACBQAAAGgAACAAADASAmAAwBoAABgCIAqBSAAICCAAkIAAIiAFGiMgNJzaGNRqCeWGl4BUJuQfI7LzOIAABCAAIQABAAAIQABCAAAAAAAAAAA==

> <PUBCHEM_CACTVS_TAUTO_COUNT>
435

> <PUBCHEM_CACTVS_TPSA>
127

> <PUBCHEM_COMPONENT_COUNT>
1

> <PUBCHEM_COMPOUND_CANONICALIZED>
1

> <PUBCHEM_COMPOUND_CID>
5280343

> <PUBCHEM_COORDINATE_TYPE>
1
5
255

> <PUBCHEM_EXACT_MASS>
302.04265265

> <PUBCHEM_HEAVY_ATOM_COUNT>
22

> <PUBCHEM_ISOTOPIC_ATOM_COUNT>
0

> <PUBCHEM_IUPAC_CAS_NAME>
2-(3,4-dihydroxyphenyl)-3,5,7-trihydroxy-1-benzopyran-4-one

> <PUBCHEM_IUPAC_INCHI>
InChI=1S/C15H10O7/c16-7-4-10(19)12-11(5-7)22-15(14(21)13(12)20)6-1-2-8(17)9(18)3-6/h1-5,16-19,21H

> <PUBCHEM_IUPAC_INCHIKEY>
REFJWTPEDVJJIY-UHFFFAOYSA-N

> <PUBCHEM_IUPAC_NAME>
2-(3,4-dihydroxyphenyl)-3,5,7-trihydroxychromen-4-one

> <PUBCHEM_IUPAC_NAME_MARKUP>
2-(3,4-dihydroxyphenyl)-3,5,7-trihydroxychromen-4-one

> <PUBCHEM_IUPAC_OPENEYE_NAME>
2-(3,4-dihydroxyphenyl)-3,5,7-trihydroxy-chromen-4-one

> <PUBCHEM_IUPAC_SYSTEMATIC_NAME>
2-[3,4-bis(oxidanyl)phenyl]-3,5,7-tris(oxidanyl)chromen-4-one

> <PUBCHEM_IUPAC_TRADITIONAL_NAME>
2-(3,4-dihydroxyphenyl)-3,5,7-trihydroxy-chromone

> <PUBCHEM_MOLECULAR_FORMULA>
C15H10O7

> <PUBCHEM_MOLECULAR_WEIGHT>
302.23

> <PUBCHEM_MONOISOTOPIC_WEIGHT>
302.04265265

> <PUBCHEM_OPENEYE_CAN_SMILES>
C1=CC(=C(C=C1C2=C(C(=O)C3=C(C=C(C=C3O2)O)O)O)O)O

> <PUBCHEM_OPENEYE_ISO_SMILES>
C1=CC(=C(C=C1C2=C(C(=O)C3=C(C=C(C=C3O2)O)O)O)O)O

> <PUBCHEM_TOTAL_CHARGE>
0

> <PUBCHEM_XLOGP3>
1.5

> <RelativeEnergy>
0

> <StereoisomerIndex>
1

> <TautomerIndex>
4

> <LibDock Warning>
no hit found

> <ErrorText>
LibDock failed

$$$$
5280441
  SciTegic09112317153D

 51 54  0  0  0  0            999 V2000
   -1.8740    0.2620   -1.3350 O   0  0  0  1  0  0
   -1.7400    1.3200    2.2070 O   0  0  0  1  0  0
   -0.5380    3.5740    0.4970 O   0  0  0  1  0  0
   -3.4130    2.7740   -1.4250 O   0  0  0  1  0  0
    0.3170   -0.9060    0.4360 O   0  0  0  1  0  0
    0.5480    0.6720   -2.9830 O   0  0  0  1  0  0
   -4.4450   -1.3390    0.7300 O   0  0  0  1  0  0
   -1.6700   -4.9760    2.0420 O   0  0  0  1  0  0
    1.0430   -4.6110    1.8220 O   0  0  0  1  0  0
    5.9100    1.9670   -0.8040 O   0  0  0  1  0  0
   -1.4060    1.3450    0.8310 C   0  0  2  1  0  0
   -1.6840    2.7700    0.2800 C   0  0  2  1  0  0
   -2.2250    0.2840    0.0500 C   0  0  2  1  0  0
   -2.0070    2.7430   -1.2360 C   0  0  1  1  0  0
   -1.4310    1.4860   -1.9320 C   0  0  1  1  0  0
   -2.0720   -1.0870    0.5680 C   0  0  0  1  0  0
    0.1010    1.4740   -1.9130 C   0  0  0  1  0  0
   -0.7780   -1.6370    0.7430 C   0  0  0  1  0  0
   -3.2170   -1.8520    0.8930 C   0  0  0  1  0  0
   -0.6370   -2.9600    1.2440 C   0  0  0  1  0  0
   -3.0730   -3.1700    1.3920 C   0  0  0  1  0  0
   -1.7850   -3.7280    1.5690 C   0  0  0  1  0  0
    0.7360   -3.5140    1.4150 C   0  0  0  1  0  0
    1.5810   -1.3570    0.5730 C   0  0  0  1  0  0
    1.8370   -2.6000    1.0380 C   0  0  0  1  0  0
    2.7300   -0.4740    0.2070 C   0  0  0  1  0  0
    2.6280    0.9190    0.3720 C   0  0  0  1  0  0
    3.9170   -1.0360   -0.3010 C   0  0  0  1  0  0
    3.7110    1.7460    0.0280 C   0  0  0  1  0  0
    4.9950   -0.2040   -0.6430 C   0  0  0  1  0  0
    4.8970    1.1890   -0.4820 C   0  0  0  1  0  0
   -0.3430    1.0940    0.7610 H   0  0  0  1  0  0
   -2.4940    3.2590    0.8250 H   0  0  0  1  0  0
   -3.2840    0.5420    0.1030 H   0  0  0  1  0  0
   -1.6380    3.6410   -1.7360 H   0  0  0  1  0  0
   -1.7450    1.4550   -2.9760 H   0  0  0  1  0  0
    0.4960    2.4810   -2.0580 H   0  0  0  1  0  0
    0.4720    1.0420   -0.9850 H   0  0  0  1  0  0
   -3.9490   -3.7500    1.6380 H   0  0  0  1  0  0
    2.8540   -2.9510    1.1440 H   0  0  0  1  0  0
    1.7230    1.3590    0.7620 H   0  0  0  1  0  0
    4.0040   -2.1040   -0.4300 H   0  0  0  1  0  0
    3.6270    2.8170    0.1550 H   0  0  0  1  0  0
    5.9040   -0.6410   -1.0330 H   0  0  0  1  0  0
   -1.3840    0.4960    2.5740 H   0  0  0  1  0  0
   -0.4240    3.6580    1.4570 H   0  0  0  1  0  0
   -3.5720    2.8560   -2.3770 H   0  0  0  1  0  0
    1.5170    0.6880   -2.9660 H   0  0  0  1  0  0
   -4.6240   -0.7700   -0.0270 H   0  0  0  1  0  0
   -2.4690   -5.4770    2.2560 H   0  0  0  1  0  0
    6.7190    1.5700   -1.1510 H   0  0  0  1  0  0
  1 13  1  0
  1 15  1  0
  2 11  1  0
  2 45  1  0
  3 12  1  0
  3 46  1  0
  4 14  1  0
  4 47  1  0
  5 18  1  0
  5 24  1  0
  6 17  1  0
  6 48  1  0
  7 19  1  0
  7 49  1  0
  8 22  1  0
  8 50  1  0
  9 23  2  0
 10 31  1  0
 10 51  1  0
 11 12  1  0
 11 13  1  0
 11 32  1  0
 12 14  1  0
 12 33  1  0
 13 16  1  0
 13 34  1  0
 14 15  1  0
 14 35  1  0
 15 17  1  0
 15 36  1  0
 16 18  2  0
 16 19  1  0
 17 37  1  0
 17 38  1  0
 18 20  1  0
 19 21  2  0
 20 22  2  0
 20 23  1  0
 21 22  1  0
 21 39  1  0
 23 25  1  0
 24 25  2  0
 24 26  1  0
 25 40  1  0
 26 27  2  0
 26 28  1  0
 27 29  1  0
 27 41  1  0
 28 30  2  0
 28 42  1  0
 29 31  2  0
 29 43  1  0
 30 31  1  0
 30 44  1  0
M  END
> <Name>
5280441

> <AbsoluteEnergy>
46.7185

> <ConfNumber>
1

> <Ionization pH>
6.85_PPP

> <IonizationIndex>
1

> <NumberOfIonizations>
3

> <NumberOfStereoisomers>
1

> <NumberOfTautomers>
4

> <OBJECTID>
9223375404112478221

> <PUBCHEM_ATOM_DEF_STEREO_COUNT>
5

> <PUBCHEM_ATOM_UDEF_STEREO_COUNT>
0

> <PUBCHEM_BONDANNOTATIONS>
13  34  5
15  17  6
16  18  8
16  19  8
18  20  8
19  21  8
11  2  5
20  22  8
20  23  8
21  22  8
23  25  8
24  25  8
26  27  8
26  28  8
27  29  8
28  30  8
29  31  8
12  3  6
30  31  8
14  4  5
5  18  8
5  24  8

> <PUBCHEM_BOND_DEF_STEREO_COUNT>
0

> <PUBCHEM_BOND_UDEF_STEREO_COUNT>
0

> <PUBCHEM_CACTVS_COMPLEXITY>
690

> <PUBCHEM_CACTVS_HBOND_ACCEPTOR>
10

> <PUBCHEM_CACTVS_HBOND_DONOR>
7

> <PUBCHEM_CACTVS_ROTATABLE_BOND>
3

> <PUBCHEM_CACTVS_SUBSKEYS>
AAADceB4PAAAAAAAAAAAAAAAAAAAAAAAAAA0YIEAAAAAAACBQAAAGgAACAAADBSgmAIwBoAABgCIAqBSAAACCAAkIAAIiAEGCMgNNzaGNRqCeWCl4BULuQfI7PzOIAACCAAIAABAAAQQABAAAAAAAAAAAA==

> <PUBCHEM_CACTVS_TAUTO_COUNT>
57

> <PUBCHEM_CACTVS_TPSA>
177

> <PUBCHEM_COMPONENT_COUNT>
1

> <PUBCHEM_COMPOUND_CANONICALIZED>
1

> <PUBCHEM_COMPOUND_CID>
5280441

> <PUBCHEM_COORDINATE_TYPE>
1
5
255

> <PUBCHEM_EXACT_MASS>
432.10564683

> <PUBCHEM_HEAVY_ATOM_COUNT>
31

> <PUBCHEM_ISOTOPIC_ATOM_COUNT>
0

> <PUBCHEM_IUPAC_CAS_NAME>
5,7-dihydroxy-2-(4-hydroxyphenyl)-8-[(2S,3R,4R,5S,6R)-3,4,5-trihydroxy-6-(hydroxymethyl)-2-oxanyl]-1-benzopyran-4-one

> <PUBCHEM_IUPAC_INCHI>
InChI=1S/C21H20O10/c22-7-14-17(27)18(28)19(29)21(31-14)16-11(25)5-10(24)15-12(26)6-13(30-20(15)16)8-1-3-9(23)4-2-8/h1-6,14,17-19,21-25,27-29H,7H2/t14-,17-,18+,19-,21+/m1/s1

> <PUBCHEM_IUPAC_INCHIKEY>
SGEWCQFRYRRZDC-VPRICQMDSA-N

> <PUBCHEM_IUPAC_NAME>
5,7-dihydroxy-2-(4-hydroxyphenyl)-8-[(2S,3R,4R,5S,6R)-3,4,5-trihydroxy-6-(hydroxymethyl)oxan-2-yl]chromen-4-one

> <PUBCHEM_IUPAC_NAME_MARKUP>
5,7-dihydroxy-2-(4-hydroxyphenyl)-8-[(2<I>S</I>,3<I>R</I>,4<I>R</I>,5<I>S</I>,6<I>R</I>)-3,4,5-trihydroxy-6-(hydroxymethyl)oxan-2-yl]chromen-4-one

> <PUBCHEM_IUPAC_OPENEYE_NAME>
5,7-dihydroxy-2-(4-hydroxyphenyl)-8-[(2S,3R,4R,5S,6R)-3,4,5-trihydroxy-6-(hydroxymethyl)tetrahydropyran-2-yl]chromen-4-one

> <PUBCHEM_IUPAC_SYSTEMATIC_NAME>
8-[(2S,3R,4R,5S,6R)-6-(hydroxymethyl)-3,4,5-tris(oxidanyl)oxan-2-yl]-2-(4-hydroxyphenyl)-5,7-bis(oxidanyl)chromen-4-one

> <PUBCHEM_IUPAC_TRADITIONAL_NAME>
5,7-dihydroxy-2-(4-hydroxyphenyl)-8-[(2S,3R,4R,5S,6R)-3,4,5-trihydroxy-6-methylol-tetrahydropyran-2-yl]chromone

> <PUBCHEM_MOLECULAR_FORMULA>
C21H20O10

> <PUBCHEM_MOLECULAR_WEIGHT>
432.4

> <PUBCHEM_MONOISOTOPIC_WEIGHT>
432.10564683

> <PUBCHEM_OPENEYE_CAN_SMILES>
C1=CC(=CC=C1C2=CC(=O)C3=C(O2)C(=C(C=C3O)O)C4C(C(C(C(O4)CO)O)O)O)O

> <PUBCHEM_OPENEYE_ISO_SMILES>
C1=CC(=CC=C1C2=CC(=O)C3=C(O2)C(=C(C=C3O)O)[C@H]4[C@@H]([C@H]([C@@H]([C@H](O4)CO)O)O)O)O

> <PUBCHEM_TOTAL_CHARGE>
0

> <PUBCHEM_XLOGP3_AA>
0.2

> <RelativeEnergy>
0

> <StereoisomerIndex>
1

> <TautomerIndex>
1

> <LibDock Warning>
no hit found

> <ErrorText>
LibDock failed

$$$$
5280441
  SciTegic09112317153D

 51 54  0  0  0  0            999 V2000
   -1.7390   -0.7470    1.2920 O   0  0  0  1  0  0
   -1.9880    0.2810   -2.2550 O   0  0  0  1  0  0
   -1.3940   -2.7330   -2.1780 O   0  0  0  1  0  0
   -3.8950   -2.5080    0.3300 O   0  0  0  1  0  0
    0.6300    0.7000    0.0010 O   0  0  0  1  0  0
    0.4600   -2.7900    2.0520 O   0  0  0  1  0  0
   -3.8350    2.2150    0.8460 O   0  0  0  1  0  0
   -0.2230    5.3010    1.1190 O   0  0  0  1  0  0
    2.3220    4.4640    0.6310 O   0  0  0  1  0  0
    5.1860   -3.2500   -1.3640 O   0  0  0  1  0  0
   -1.6380   -0.5570   -1.1660 C   0  0  2  1  0  0
   -2.2750   -1.9530   -1.3910 C   0  0  2  1  0  0
   -2.1200    0.0600    0.1740 C   0  0  2  1  0  0
   -2.5410   -2.6830   -0.0480 C   0  0  1  1  0  0
   -1.6280   -2.1590    1.0880 C   0  0  1  1  0  0
   -1.6160    1.4240    0.4180 C   0  0  0  1  0  0
   -0.1510   -2.4660    0.8230 C   0  0  0  1  0  0
   -0.2290    1.6950    0.3180 C   0  0  0  1  0  0
   -2.5200    2.4630    0.7510 C   0  0  0  1  0  0
    0.2510    3.0160    0.5540 C   0  0  0  1  0  0
   -2.0390    3.7720    0.9870 C   0  0  0  1  0  0
   -0.6570    4.0530    0.8910 C   0  0  0  1  0  0
    1.7160    3.2940    0.4450 C   0  0  0  1  0  0
    1.9550    0.9010   -0.1090 C   0  0  0  1  0  0
    2.5130    2.2520    0.1240 C   0  0  0  1  0  0
    2.7600   -0.1270   -0.4280 C   0  0  0  1  0  0
    4.1780   -0.1310   -0.0120 C   0  0  0  1  0  0
    2.2440   -1.2770   -1.2020 C   0  0  0  1  0  0
    4.9840   -1.1660   -0.3250 C   0  0  0  1  0  0
    3.0500   -2.3110   -1.5140 C   0  0  0  1  0  0
    4.4650   -2.3180   -1.0900 C   0  0  0  1  0  0
   -0.5460   -0.6160   -1.1560 H   0  0  0  1  0  0
   -3.2010   -1.8820   -1.9660 H   0  0  0  1  0  0
   -3.2100    0.1050    0.1740 H   0  0  0  1  0  0
   -2.4140   -3.7620   -0.1520 H   0  0  0  1  0  0
   -1.8940   -2.6310    2.0350 H   0  0  0  1  0  0
   -0.0490   -3.3230    0.1570 H   0  0  0  1  0  0
    0.3560   -1.5950    0.4110 H   0  0  0  1  0  0
   -2.7310    4.5620    1.2400 H   0  0  0  1  0  0
    3.5800    2.4080    0.0340 H   0  0  0  1  0  0
    4.5820    0.7020    0.5470 H   0  0  0  1  0  0
    1.2130   -1.2960   -1.5240 H   0  0  0  1  0  0
    6.0180   -1.1500   -0.0140 H   0  0  0  1  0  0
    2.6540   -3.1440   -2.0780 H   0  0  0  1  0  0
   -1.4310    1.0720   -2.1990 H   0  0  0  1  0  0
   -1.3340   -2.3070   -3.0480 H   0  0  0  1  0  0
   -4.0460   -3.0600    1.1140 H   0  0  0  1  0  0
    1.3880   -2.9950    1.8650 H   0  0  0  1  0  0
   -4.1320    1.3740    1.2180 H   0  0  0  1  0  0
   -0.8630    5.9890    1.3470 H   0  0  0  1  0  0
    1.7910    5.2420    0.8450 H   0  0  0  1  0  0
  1 13  1  0
  1 15  1  0
  2 11  1  0
  2 45  1  0
  3 12  1  0
  3 46  1  0
  4 14  1  0
  4 47  1  0
  5 18  1  0
  5 24  1  0
  6 17  1  0
  6 48  1  0
  7 19  1  0
  7 49  1  0
  8 22  1  0
  8 50  1  0
  9 23  1  0
  9 51  1  0
 10 31  2  0
 11 12  1  0
 11 13  1  0
 11 32  1  0
 12 14  1  0
 12 33  1  0
 13 16  1  0
 13 34  1  0
 14 15  1  0
 14 35  1  0
 15 17  1  0
 15 36  1  0
 16 18  2  0
 16 19  1  0
 17 37  1  0
 17 38  1  0
 18 20  1  0
 19 21  2  0
 20 22  2  0
 20 23  1  0
 21 22  1  0
 21 39  1  0
 23 25  2  0
 24 25  1  0
 24 26  2  0
 25 40  1  0
 26 27  1  0
 26 28  1  0
 27 29  2  0
 27 41  1  0
 28 30  2  0
 28 42  1  0
 29 31  1  0
 29 43  1  0
 30 31  1  0
 30 44  1  0
M  END
> <Name>
5280441

> <AbsoluteEnergy>
44.9959

> <ConfNumber>
1

> <Ionization pH>
6.85_PPP

> <IonizationIndex>
1

> <NumberOfIonizations>
3

> <NumberOfStereoisomers>
1

> <NumberOfTautomers>
4

> <OBJECTID>
9223375408407445517

> <PUBCHEM_ATOM_DEF_STEREO_COUNT>
5

> <PUBCHEM_ATOM_UDEF_STEREO_COUNT>
0

> <PUBCHEM_BONDANNOTATIONS>
13  34  5
15  17  6
16  18  8
16  19  8
18  20  8
19  21  8
11  2  5
20  22  8
20  23  8
21  22  8
23  25  8
24  25  8
26  27  8
26  28  8
27  29  8
28  30  8
29  31  8
12  3  6
30  31  8
14  4  5
5  18  8
5  24  8

> <PUBCHEM_BOND_DEF_STEREO_COUNT>
0

> <PUBCHEM_BOND_UDEF_STEREO_COUNT>
0

> <PUBCHEM_CACTVS_COMPLEXITY>
690

> <PUBCHEM_CACTVS_HBOND_ACCEPTOR>
10

> <PUBCHEM_CACTVS_HBOND_DONOR>
7

> <PUBCHEM_CACTVS_ROTATABLE_BOND>
3

> <PUBCHEM_CACTVS_SUBSKEYS>
AAADceB4PAAAAAAAAAAAAAAAAAAAAAAAAAA0YIEAAAAAAACBQAAAGgAACAAADBSgmAIwBoAABgCIAqBSAAACCAAkIAAIiAEGCMgNNzaGNRqCeWCl4BULuQfI7PzOIAACCAAIAABAAAQQABAAAAAAAAAAAA==

> <PUBCHEM_CACTVS_TAUTO_COUNT>
57

> <PUBCHEM_CACTVS_TPSA>
177

> <PUBCHEM_COMPONENT_COUNT>
1

> <PUBCHEM_COMPOUND_CANONICALIZED>
1

> <PUBCHEM_COMPOUND_CID>
5280441

> <PUBCHEM_COORDINATE_TYPE>
1
5
255

> <PUBCHEM_EXACT_MASS>
432.10564683

> <PUBCHEM_HEAVY_ATOM_COUNT>
31

> <PUBCHEM_ISOTOPIC_ATOM_COUNT>
0

> <PUBCHEM_IUPAC_CAS_NAME>
5,7-dihydroxy-2-(4-hydroxyphenyl)-8-[(2S,3R,4R,5S,6R)-3,4,5-trihydroxy-6-(hydroxymethyl)-2-oxanyl]-1-benzopyran-4-one

> <PUBCHEM_IUPAC_INCHI>
InChI=1S/C21H20O10/c22-7-14-17(27)18(28)19(29)21(31-14)16-11(25)5-10(24)15-12(26)6-13(30-20(15)16)8-1-3-9(23)4-2-8/h1-6,14,17-19,21-25,27-29H,7H2/t14-,17-,18+,19-,21+/m1/s1

> <PUBCHEM_IUPAC_INCHIKEY>
SGEWCQFRYRRZDC-VPRICQMDSA-N

> <PUBCHEM_IUPAC_NAME>
5,7-dihydroxy-2-(4-hydroxyphenyl)-8-[(2S,3R,4R,5S,6R)-3,4,5-trihydroxy-6-(hydroxymethyl)oxan-2-yl]chromen-4-one

> <PUBCHEM_IUPAC_NAME_MARKUP>
5,7-dihydroxy-2-(4-hydroxyphenyl)-8-[(2<I>S</I>,3<I>R</I>,4<I>R</I>,5<I>S</I>,6<I>R</I>)-3,4,5-trihydroxy-6-(hydroxymethyl)oxan-2-yl]chromen-4-one

> <PUBCHEM_IUPAC_OPENEYE_NAME>
5,7-dihydroxy-2-(4-hydroxyphenyl)-8-[(2S,3R,4R,5S,6R)-3,4,5-trihydroxy-6-(hydroxymethyl)tetrahydropyran-2-yl]chromen-4-one

> <PUBCHEM_IUPAC_SYSTEMATIC_NAME>
8-[(2S,3R,4R,5S,6R)-6-(hydroxymethyl)-3,4,5-tris(oxidanyl)oxan-2-yl]-2-(4-hydroxyphenyl)-5,7-bis(oxidanyl)chromen-4-one

> <PUBCHEM_IUPAC_TRADITIONAL_NAME>
5,7-dihydroxy-2-(4-hydroxyphenyl)-8-[(2S,3R,4R,5S,6R)-3,4,5-trihydroxy-6-methylol-tetrahydropyran-2-yl]chromone

> <PUBCHEM_MOLECULAR_FORMULA>
C21H20O10

> <PUBCHEM_MOLECULAR_WEIGHT>
432.4

> <PUBCHEM_MONOISOTOPIC_WEIGHT>
432.10564683

> <PUBCHEM_OPENEYE_CAN_SMILES>
C1=CC(=CC=C1C2=CC(=O)C3=C(O2)C(=C(C=C3O)O)C4C(C(C(C(O4)CO)O)O)O)O

> <PUBCHEM_OPENEYE_ISO_SMILES>
C1=CC(=CC=C1C2=CC(=O)C3=C(O2)C(=C(C=C3O)O)[C@H]4[C@@H]([C@H]([C@@H]([C@H](O4)CO)O)O)O)O

> <PUBCHEM_TOTAL_CHARGE>
0

> <PUBCHEM_XLOGP3_AA>
0.2

> <RelativeEnergy>
0

> <StereoisomerIndex>
1

> <TautomerIndex>
2

> <LibDock Warning>
no hit found

> <ErrorText>
LibDock failed

$$$$
5280441
  SciTegic09112317153D

 51 54  0  0  0  0            999 V2000
   -1.0850    0.9850   -0.3180 O   0  0  0  1  0  0
   -3.3680   -1.2750    1.4250 O   0  0  0  1  0  0
   -2.4740    0.5000    3.5510 O   0  0  0  1  0  0
   -1.7640    3.1390    2.5470 O   0  0  0  1  0  0
    0.5020   -0.6810   -0.6730 O   0  0  0  1  0  0
    0.8630    2.9350    0.9660 O   0  0  0  1  0  0
   -4.1030   -1.6340   -1.4530 O   0  0  0  1  0  0
   -0.9370   -4.3710   -3.4470 O   0  0  0  1  0  0
    1.6530   -3.8950   -3.0800 O   0  0  0  1  0  0
    5.7630    2.2050    1.5340 O   0  0  0  1  0  0
   -2.2740   -0.3810    1.2990 C   0  0  2  1  0  0
   -2.5180    0.8640    2.1800 C   0  0  2  1  0  0
   -2.1110    0.0060   -0.1910 C   0  0  2  1  0  0
   -1.4390    1.9290    1.8860 C   0  0  1  1  0  0
   -1.3240    2.2060    0.3700 C   0  0  1  1  0  0
   -1.7410   -1.1650   -1.0660 C   0  0  0  1  0  0
   -0.1640    3.1470    0.0240 C   0  0  0  1  0  0
   -0.4340   -1.4570   -1.2700 C   0  0  0  1  0  0
   -2.8320   -1.9620   -1.6790 C   0  0  0  1  0  0
   -0.0730   -2.6150   -2.1330 C   0  0  0  1  0  0
   -2.5500   -3.0190   -2.4660 C   0  0  0  1  0  0
   -1.1610   -3.4150   -2.7420 C   0  0  0  1  0  0
    1.2340   -2.8810   -2.3240 C   0  0  0  1  0  0
    1.8040   -0.9820   -0.8910 C   0  0  0  1  0  0
    2.2150   -2.0110   -1.6640 C   0  0  0  1  0  0
    2.8550   -0.1360   -0.2480 C   0  0  0  1  0  0
    3.9820   -0.7370    0.3400 C   0  0  0  1  0  0
    2.7190    1.2640   -0.2290 C   0  0  0  1  0  0
    4.9700    0.0580    0.9460 C   0  0  0  1  0  0
    3.7090    2.0590    0.3780 C   0  0  0  1  0  0
    4.8350    1.4580    0.9660 C   0  0  0  1  0  0
   -1.3810   -0.9070    1.6380 H   0  0  0  1  0  0
   -3.5070    1.2750    1.9760 H   0  0  0  1  0  0
   -3.0350    0.4470   -0.5750 H   0  0  0  1  0  0
   -0.4720    1.5990    2.2690 H   0  0  0  1  0  0
   -2.2550    2.6290   -0.0150 H   0  0  0  1  0  0
    0.2320    2.9210   -0.9650 H   0  0  0  1  0  0
   -0.4750    4.1900    0.0890 H   0  0  0  1  0  0
   -3.3610   -3.5880   -2.9020 H   0  0  0  1  0  0
    3.2660   -2.2150   -1.8120 H   0  0  0  1  0  0
    4.0970   -1.8130    0.3300 H   0  0  0  1  0  0
    1.8560    1.7370   -0.6770 H   0  0  0  1  0  0
    5.8320   -0.4080    1.3940 H   0  0  0  1  0  0
    3.5980    3.1330    0.3900 H   0  0  0  1  0  0
   -3.1020   -2.1120    1.0150 H   0  0  0  1  0  0
   -3.1660   -0.1640    3.6920 H   0  0  0  1  0  0
   -1.0630    3.7760    2.3400 H   0  0  0  1  0  0
    1.5510    3.5950    0.7920 H   0  0  0  1  0  0
   -4.3090   -0.7680   -1.0800 H   0  0  0  1  0  0
    5.6560    3.1650    1.5400 H   0  0  0  1  0  0
    2.6020   -4.0440   -3.1860 H   0  0  0  1  0  0
  1 13  1  0
  1 15  1  0
  2 11  1  0
  2 45  1  0
  3 12  1  0
  3 46  1  0
  4 14  1  0
  4 47  1  0
  5 18  1  0
  5 24  1  0
  6 17  1  0
  6 48  1  0
  7 19  1  0
  7 49  1  0
  8 22  2  0
  9 23  1  0
  9 51  1  0
 10 31  1  0
 10 50  1  0
 11 12  1  0
 11 13  1  0
 11 32  1  0
 12 14  1  0
 12 33  1  0
 13 16  1  0
 13 34  1  0
 14 15  1  0
 14 35  1  0
 15 17  1  0
 15 36  1  0
 16 18  2  0
 16 19  1  0
 17 37  1  0
 17 38  1  0
 18 20  1  0
 19 21  2  0
 20 22  1  0
 20 23  2  0
 21 22  1  0
 21 39  1  0
 23 25  1  0
 24 25  2  0
 24 26  1  0
 25 40  1  0
 26 27  2  0
 26 28  1  0
 27 29  1  0
 27 41  1  0
 28 30  2  0
 28 42  1  0
 29 31  2  0
 29 43  1  0
 30 31  1  0
 30 44  1  0
M  END
> <Name>
5280441

> <AbsoluteEnergy>
41.2615

> <ConfNumber>
1

> <Ionization pH>
6.85_PPP

> <IonizationIndex>
1

> <NumberOfIonizations>
3

> <NumberOfStereoisomers>
1

> <NumberOfTautomers>
4

> <OBJECTID>
9223375412702412813

> <PUBCHEM_ATOM_DEF_STEREO_COUNT>
5

> <PUBCHEM_ATOM_UDEF_STEREO_COUNT>
0

> <PUBCHEM_BONDANNOTATIONS>
13  34  5
15  17  6
16  18  8
16  19  8
18  20  8
19  21  8
11  2  5
20  22  8
20  23  8
21  22  8
23  25  8
24  25  8
26  27  8
26  28  8
27  29  8
28  30  8
29  31  8
12  3  6
30  31  8
14  4  5
5  18  8
5  24  8

> <PUBCHEM_BOND_DEF_STEREO_COUNT>
0

> <PUBCHEM_BOND_UDEF_STEREO_COUNT>
0

> <PUBCHEM_CACTVS_COMPLEXITY>
690

> <PUBCHEM_CACTVS_HBOND_ACCEPTOR>
10

> <PUBCHEM_CACTVS_HBOND_DONOR>
7

> <PUBCHEM_CACTVS_ROTATABLE_BOND>
3

> <PUBCHEM_CACTVS_SUBSKEYS>
AAADceB4PAAAAAAAAAAAAAAAAAAAAAAAAAA0YIEAAAAAAACBQAAAGgAACAAADBSgmAIwBoAABgCIAqBSAAACCAAkIAAIiAEGCMgNNzaGNRqCeWCl4BULuQfI7PzOIAACCAAIAABAAAQQABAAAAAAAAAAAA==

> <PUBCHEM_CACTVS_TAUTO_COUNT>
57

> <PUBCHEM_CACTVS_TPSA>
177

> <PUBCHEM_COMPONENT_COUNT>
1

> <PUBCHEM_COMPOUND_CANONICALIZED>
1

> <PUBCHEM_COMPOUND_CID>
5280441

> <PUBCHEM_COORDINATE_TYPE>
1
5
255

> <PUBCHEM_EXACT_MASS>
432.10564683

> <PUBCHEM_HEAVY_ATOM_COUNT>
31

> <PUBCHEM_ISOTOPIC_ATOM_COUNT>
0

> <PUBCHEM_IUPAC_CAS_NAME>
5,7-dihydroxy-2-(4-hydroxyphenyl)-8-[(2S,3R,4R,5S,6R)-3,4,5-trihydroxy-6-(hydroxymethyl)-2-oxanyl]-1-benzopyran-4-one

> <PUBCHEM_IUPAC_INCHI>
InChI=1S/C21H20O10/c22-7-14-17(27)18(28)19(29)21(31-14)16-11(25)5-10(24)15-12(26)6-13(30-20(15)16)8-1-3-9(23)4-2-8/h1-6,14,17-19,21-25,27-29H,7H2/t14-,17-,18+,19-,21+/m1/s1

> <PUBCHEM_IUPAC_INCHIKEY>
SGEWCQFRYRRZDC-VPRICQMDSA-N

> <PUBCHEM_IUPAC_NAME>
5,7-dihydroxy-2-(4-hydroxyphenyl)-8-[(2S,3R,4R,5S,6R)-3,4,5-trihydroxy-6-(hydroxymethyl)oxan-2-yl]chromen-4-one

> <PUBCHEM_IUPAC_NAME_MARKUP>
5,7-dihydroxy-2-(4-hydroxyphenyl)-8-[(2<I>S</I>,3<I>R</I>,4<I>R</I>,5<I>S</I>,6<I>R</I>)-3,4,5-trihydroxy-6-(hydroxymethyl)oxan-2-yl]chromen-4-one

> <PUBCHEM_IUPAC_OPENEYE_NAME>
5,7-dihydroxy-2-(4-hydroxyphenyl)-8-[(2S,3R,4R,5S,6R)-3,4,5-trihydroxy-6-(hydroxymethyl)tetrahydropyran-2-yl]chromen-4-one

> <PUBCHEM_IUPAC_SYSTEMATIC_NAME>
8-[(2S,3R,4R,5S,6R)-6-(hydroxymethyl)-3,4,5-tris(oxidanyl)oxan-2-yl]-2-(4-hydroxyphenyl)-5,7-bis(oxidanyl)chromen-4-one

> <PUBCHEM_IUPAC_TRADITIONAL_NAME>
5,7-dihydroxy-2-(4-hydroxyphenyl)-8-[(2S,3R,4R,5S,6R)-3,4,5-trihydroxy-6-methylol-tetrahydropyran-2-yl]chromone

> <PUBCHEM_MOLECULAR_FORMULA>
C21H20O10

> <PUBCHEM_MOLECULAR_WEIGHT>
432.4

> <PUBCHEM_MONOISOTOPIC_WEIGHT>
432.10564683

> <PUBCHEM_OPENEYE_CAN_SMILES>
C1=CC(=CC=C1C2=CC(=O)C3=C(O2)C(=C(C=C3O)O)C4C(C(C(C(O4)CO)O)O)O)O

> <PUBCHEM_OPENEYE_ISO_SMILES>
C1=CC(=CC=C1C2=CC(=O)C3=C(O2)C(=C(C=C3O)O)[C@H]4[C@@H]([C@H]([C@@H]([C@H](O4)CO)O)O)O)O

> <PUBCHEM_TOTAL_CHARGE>
0

> <PUBCHEM_XLOGP3_AA>
0.2

> <RelativeEnergy>
0

> <StereoisomerIndex>
1

> <TautomerIndex>
3

> <LibDock Warning>
no hit found

> <ErrorText>
LibDock failed

$$$$
5280441
  SciTegic09112317153D

 51 54  0  0  0  0            999 V2000
   -1.6750    1.2650    1.0540 O   0  0  0  1  0  0
   -1.8190    0.9010   -2.6120 O   0  0  0  1  0  0
   -2.9950    3.6560   -1.8870 O   0  0  0  1  0  0
   -0.1130    3.6140    0.1870 O   0  0  0  1  0  0
    0.8160   -0.9470   -0.0520 O   0  0  0  1  0  0
   -4.0750    3.1150    2.3920 O   0  0  0  1  0  0
   -3.8250   -0.5940   -0.3480 O   0  0  0  1  0  0
   -2.1470   -4.9080   -0.1030 O   0  0  0  1  0  0
    0.4760   -5.1070    0.0520 O   0  0  0  1  0  0
    7.0080    0.6040    0.2900 O   0  0  0  1  0  0
   -2.1450    1.4600   -1.3520 C   0  0  2  1  0  0
   -1.8540    2.9840   -1.3850 C   0  0  2  1  0  0
   -1.3280    0.7640   -0.2390 C   0  0  2  1  0  0
   -1.5190    3.5280    0.0300 C   0  0  1  1  0  0
   -2.0990    2.6300    1.1490 C   0  0  1  1  0  0
   -1.4940   -0.7350   -0.2010 C   0  0  0  1  0  0
   -3.6320    2.6290    1.1450 C   0  0  0  1  0  0
   -0.4050   -1.5310   -0.1080 C   0  0  0  1  0  0
   -2.8530   -1.3090   -0.2640 C   0  0  0  1  0  0
   -0.5820   -3.0130   -0.0720 C   0  0  0  1  0  0
   -3.0150   -2.7730   -0.2250 C   0  0  0  1  0  0
   -1.9500   -3.5920   -0.1350 C   0  0  0  1  0  0
    0.5250   -3.7770    0.0150 C   0  0  0  1  0  0
    1.9010   -1.7500    0.0380 C   0  0  0  1  0  0
    1.8260   -3.1000    0.0740 C   0  0  0  1  0  0
    3.2560   -1.1250    0.1030 C   0  0  0  1  0  0
    3.4900    0.1180   -0.5110 C   0  0  0  1  0  0
    4.3010   -1.7800    0.7820 C   0  0  0  1  0  0
    4.7660    0.7030   -0.4470 C   0  0  0  1  0  0
    5.5750   -1.1900    0.8440 C   0  0  0  1  0  0
    5.8120    0.0520    0.2300 C   0  0  0  1  0  0
   -3.2050    1.2600   -1.1860 H   0  0  0  1  0  0
   -1.0410    3.2190   -2.0770 H   0  0  0  1  0  0
   -0.2700    0.9840   -0.3860 H   0  0  0  1  0  0
   -1.8810    4.5500    0.1540 H   0  0  0  1  0  0
   -1.7780    2.9890    2.1280 H   0  0  0  1  0  0
   -4.0160    3.2880    0.3660 H   0  0  0  1  0  0
   -4.0160    1.6160    1.0190 H   0  0  0  1  0  0
   -4.0110   -3.1940   -0.2680 H   0  0  0  1  0  0
    2.7180   -3.7050    0.1470 H   0  0  0  1  0  0
    2.6940    0.6270   -1.0350 H   0  0  0  1  0  0
    4.1300   -2.7350    1.2570 H   0  0  0  1  0  0
    4.9410    1.6570   -0.9210 H   0  0  0  1  0  0
    6.3730   -1.6970    1.3660 H   0  0  0  1  0  0
   -2.5320    0.2850   -2.8450 H   0  0  0  1  0  0
   -3.0040    3.5210   -2.8490 H   0  0  0  1  0  0
    0.0540    4.2020    0.9410 H   0  0  0  1  0  0
   -5.0440    3.1080    2.3730 H   0  0  0  1  0  0
   -1.4870   -5.4760    0.3180 H   0  0  0  1  0  0
    7.7170    0.1440    0.7590 H   0  0  0  1  0  0
    1.2980   -5.6110    0.1160 H   0  0  0  1  0  0
  1 13  1  0
  1 15  1  0
  2 11  1  0
  2 45  1  0
  3 12  1  0
  3 46  1  0
  4 14  1  0
  4 47  1  0
  5 18  1  0
  5 24  1  0
  6 17  1  0
  6 48  1  0
  7 19  2  0
  8 22  1  0
  8 49  1  0
  9 23  1  0
  9 51  1  0
 10 31  1  0
 10 50  1  0
 11 12  1  0
 11 13  1  0
 11 32  1  0
 12 14  1  0
 12 33  1  0
 13 16  1  0
 13 34  1  0
 14 15  1  0
 14 35  1  0
 15 17  1  0
 15 36  1  0
 16 18  2  0
 16 19  1  0
 17 37  1  0
 17 38  1  0
 18 20  1  0
 19 21  1  0
 20 22  1  0
 20 23  2  0
 21 22  2  0
 21 39  1  0
 23 25  1  0
 24 25  2  0
 24 26  1  0
 25 40  1  0
 26 27  2  0
 26 28  1  0
 27 29  1  0
 27 41  1  0
 28 30  2  0
 28 42  1  0
 29 31  2  0
 29 43  1  0
 30 31  1  0
 30 44  1  0
M  END
> <Name>
5280441

> <AbsoluteEnergy>
41.0231

> <ConfNumber>
1

> <Ionization pH>
6.85_PPP

> <IonizationIndex>
1

> <NumberOfIonizations>
3

> <NumberOfStereoisomers>
1

> <NumberOfTautomers>
4

> <OBJECTID>
9223375416997380109

> <PUBCHEM_ATOM_DEF_STEREO_COUNT>
5

> <PUBCHEM_ATOM_UDEF_STEREO_COUNT>
0

> <PUBCHEM_BONDANNOTATIONS>
13  34  5
15  17  6
16  18  8
16  19  8
18  20  8
19  21  8
11  2  5
20  22  8
20  23  8
21  22  8
23  25  8
24  25  8
26  27  8
26  28  8
27  29  8
28  30  8
29  31  8
12  3  6
30  31  8
14  4  5
5  18  8
5  24  8

> <PUBCHEM_BOND_DEF_STEREO_COUNT>
0

> <PUBCHEM_BOND_UDEF_STEREO_COUNT>
0

> <PUBCHEM_CACTVS_COMPLEXITY>
690

> <PUBCHEM_CACTVS_HBOND_ACCEPTOR>
10

> <PUBCHEM_CACTVS_HBOND_DONOR>
7

> <PUBCHEM_CACTVS_ROTATABLE_BOND>
3

> <PUBCHEM_CACTVS_SUBSKEYS>
AAADceB4PAAAAAAAAAAAAAAAAAAAAAAAAAA0YIEAAAAAAACBQAAAGgAACAAADBSgmAIwBoAABgCIAqBSAAACCAAkIAAIiAEGCMgNNzaGNRqCeWCl4BULuQfI7PzOIAACCAAIAABAAAQQABAAAAAAAAAAAA==

> <PUBCHEM_CACTVS_TAUTO_COUNT>
57

> <PUBCHEM_CACTVS_TPSA>
177

> <PUBCHEM_COMPONENT_COUNT>
1

> <PUBCHEM_COMPOUND_CANONICALIZED>
1

> <PUBCHEM_COMPOUND_CID>
5280441

> <PUBCHEM_COORDINATE_TYPE>
1
5
255

> <PUBCHEM_EXACT_MASS>
432.10564683

> <PUBCHEM_HEAVY_ATOM_COUNT>
31

> <PUBCHEM_ISOTOPIC_ATOM_COUNT>
0

> <PUBCHEM_IUPAC_CAS_NAME>
5,7-dihydroxy-2-(4-hydroxyphenyl)-8-[(2S,3R,4R,5S,6R)-3,4,5-trihydroxy-6-(hydroxymethyl)-2-oxanyl]-1-benzopyran-4-one

> <PUBCHEM_IUPAC_INCHI>
InChI=1S/C21H20O10/c22-7-14-17(27)18(28)19(29)21(31-14)16-11(25)5-10(24)15-12(26)6-13(30-20(15)16)8-1-3-9(23)4-2-8/h1-6,14,17-19,21-25,27-29H,7H2/t14-,17-,18+,19-,21+/m1/s1

> <PUBCHEM_IUPAC_INCHIKEY>
SGEWCQFRYRRZDC-VPRICQMDSA-N

> <PUBCHEM_IUPAC_NAME>
5,7-dihydroxy-2-(4-hydroxyphenyl)-8-[(2S,3R,4R,5S,6R)-3,4,5-trihydroxy-6-(hydroxymethyl)oxan-2-yl]chromen-4-one

> <PUBCHEM_IUPAC_NAME_MARKUP>
5,7-dihydroxy-2-(4-hydroxyphenyl)-8-[(2<I>S</I>,3<I>R</I>,4<I>R</I>,5<I>S</I>,6<I>R</I>)-3,4,5-trihydroxy-6-(hydroxymethyl)oxan-2-yl]chromen-4-one

> <PUBCHEM_IUPAC_OPENEYE_NAME>
5,7-dihydroxy-2-(4-hydroxyphenyl)-8-[(2S,3R,4R,5S,6R)-3,4,5-trihydroxy-6-(hydroxymethyl)tetrahydropyran-2-yl]chromen-4-one

> <PUBCHEM_IUPAC_SYSTEMATIC_NAME>
8-[(2S,3R,4R,5S,6R)-6-(hydroxymethyl)-3,4,5-tris(oxidanyl)oxan-2-yl]-2-(4-hydroxyphenyl)-5,7-bis(oxidanyl)chromen-4-one

> <PUBCHEM_IUPAC_TRADITIONAL_NAME>
5,7-dihydroxy-2-(4-hydroxyphenyl)-8-[(2S,3R,4R,5S,6R)-3,4,5-trihydroxy-6-methylol-tetrahydropyran-2-yl]chromone

> <PUBCHEM_MOLECULAR_FORMULA>
C21H20O10

> <PUBCHEM_MOLECULAR_WEIGHT>
432.4

> <PUBCHEM_MONOISOTOPIC_WEIGHT>
432.10564683

> <PUBCHEM_OPENEYE_CAN_SMILES>
C1=CC(=CC=C1C2=CC(=O)C3=C(O2)C(=C(C=C3O)O)C4C(C(C(C(O4)CO)O)O)O)O

> <PUBCHEM_OPENEYE_ISO_SMILES>
C1=CC(=CC=C1C2=CC(=O)C3=C(O2)C(=C(C=C3O)O)[C@H]4[C@@H]([C@H]([C@@H]([C@H](O4)CO)O)O)O)O

> <PUBCHEM_TOTAL_CHARGE>
0

> <PUBCHEM_XLOGP3_AA>
0.2

> <RelativeEnergy>
0

> <StereoisomerIndex>
1

> <TautomerIndex>
4

> <LibDock Warning>
no hit found

> <ErrorText>
LibDock failed

$$$$
5280441
  SciTegic09112317153D

 50 53  0  0  0  0            999 V2000
    2.5280    1.2190   -0.3150 O   0  0  0  1  0  0
   -0.1210    0.2930    2.0260 O   0  0  0  1  0  0
    1.0640    2.6300    3.2910 O   0  0  0  1  0  0
    2.2320    4.4540    1.3470 O   0  0  0  1  0  0
   -0.7980   -1.0500   -0.4690 O   0  0  0  1  0  0
    3.7320    4.5520   -0.9280 O   0  0  0  1  0  0
    3.9150   -0.7230    0.1780 O   0  0  0  1  0  0
    2.1400   -4.8680   -0.8970 O   0  0  0  1  0  0
   -0.4810   -5.1400   -1.2480 O   0  0  0  1  0  0
   -6.9840    0.6560   -0.8780 O   0  5  0  1  0  0
    1.1130    0.8660    1.6240 C   0  0  2  1  0  0
    1.0890    2.3870    1.8940 C   0  0  2  1  0  0
    1.3450    0.5610    0.1250 C   0  0  2  1  0  0
    2.3390    3.0440    1.2700 C   0  0  1  1  0  0
    2.5060    2.6360   -0.2120 C   0  0  1  1  0  0
    1.5070   -0.9130   -0.1580 C   0  0  0  1  0  0
    3.8150    3.1490   -0.8240 C   0  0  0  1  0  0
    0.4140   -1.6580   -0.4440 C   0  0  0  1  0  0
    2.8690   -1.4960   -0.1100 C   0  0  0  1  0  0
    0.5750   -3.1130   -0.7190 C   0  0  0  1  0  0
    3.0650   -2.8070   -0.3580 C   0  0  0  1  0  0
    1.9360   -3.6970   -0.6770 C   0  0  0  1  0  0
   -0.5280   -3.8360   -0.9920 C   0  0  0  1  0  0
   -1.8820   -1.8110   -0.7490 C   0  0  0  1  0  0
   -1.8180   -3.1370   -1.0040 C   0  0  0  1  0  0
   -3.2280   -1.1610   -0.7820 C   0  0  0  1  0  0
   -3.3500    0.2170   -0.5310 C   0  0  0  1  0  0
   -4.3720   -1.9260   -1.0660 C   0  0  0  1  0  0
   -4.6150    0.8290   -0.5610 C   0  0  0  1  0  0
   -5.6390   -1.3150   -1.0960 C   0  0  0  1  0  0
   -5.7590    0.0640   -0.8450 C   0  0  0  1  0  0
    1.8980    0.3950    2.2190 H   0  0  0  1  0  0
    0.1870    2.8250    1.4610 H   0  0  0  1  0  0
    0.5170    0.9400   -0.4750 H   0  0  0  1  0  0
    3.2340    2.7550    1.8270 H   0  0  0  1  0  0
    1.6660    3.0010   -0.8070 H   0  0  0  1  0  0
    3.9610    2.7410   -1.8260 H   0  0  0  1  0  0
    4.6600    2.9060   -0.1800 H   0  0  0  1  0  0
    4.0660   -3.2110   -0.3220 H   0  0  0  1  0  0
   -2.7110   -3.7080   -1.2220 H   0  0  0  1  0  0
   -2.4760    0.8140   -0.3100 H   0  0  0  1  0  0
   -4.2900   -2.9860   -1.2590 H   0  0  0  1  0  0
   -4.7060    1.8870   -0.3680 H   0  0  0  1  0  0
   -6.5150   -1.9060   -1.3150 H   0  0  0  1  0  0
   -0.0130   -0.6720    1.9980 H   0  0  0  1  0  0
    1.0500    3.5920    3.4120 H   0  0  0  1  0  0
    3.0720    4.8230    1.0290 H   0  0  0  1  0  0
    4.5660    4.8600   -1.3150 H   0  0  0  1  0  0
    4.7970   -1.1130    0.2060 H   0  0  0  1  0  0
   -1.3020   -5.6150   -1.4390 H   0  0  0  1  0  0
  1 13  1  0
  1 15  1  0
  2 11  1  0
  2 45  1  0
  3 12  1  0
  3 46  1  0
  4 14  1  0
  4 47  1  0
  5 18  1  0
  5 24  1  0
  6 17  1  0
  6 48  1  0
  7 19  1  0
  7 49  1  0
  8 22  2  0
  9 23  1  0
  9 50  1  0
 10 31  1  0
 11 12  1  0
 11 13  1  0
 11 32  1  0
 12 14  1  0
 12 33  1  0
 13 16  1  0
 13 34  1  0
 14 15  1  0
 14 35  1  0
 15 17  1  0
 15 36  1  0
 16 18  2  0
 16 19  1  0
 17 37  1  0
 17 38  1  0
 18 20  1  0
 19 21  2  0
 20 22  1  0
 20 23  2  0
 21 22  1  0
 21 39  1  0
 23 25  1  0
 24 25  2  0
 24 26  1  0
 25 40  1  0
 26 27  2  0
 26 28  1  0
 27 29  1  0
 27 41  1  0
 28 30  2  0
 28 42  1  0
 29 31  2  0
 29 43  1  0
 30 31  1  0
 30 44  1  0
M  CHG  1  10  -1
M  END
> <Name>
5280441

> <AbsoluteEnergy>
36.0068

> <ConfNumber>
1

> <Ionization pH>
6.85_DPP

> <IonizationIndex>
2

> <NumberOfIonizations>
3

> <NumberOfStereoisomers>
1

> <NumberOfTautomers>
3

> <OBJECTID>
9223375425587314701

> <PUBCHEM_ATOM_DEF_STEREO_COUNT>
5

> <PUBCHEM_ATOM_UDEF_STEREO_COUNT>
0

> <PUBCHEM_BONDANNOTATIONS>
13  34  5
15  17  6
16  18  8
16  19  8
18  20  8
19  21  8
11  2  5
20  22  8
20  23  8
21  22  8
23  25  8
24  25  8
26  27  8
26  28  8
27  29  8
28  30  8
29  31  8
12  3  6
30  31  8
14  4  5
5  18  8
5  24  8

> <PUBCHEM_BOND_DEF_STEREO_COUNT>
0

> <PUBCHEM_BOND_UDEF_STEREO_COUNT>
0

> <PUBCHEM_CACTVS_COMPLEXITY>
690

> <PUBCHEM_CACTVS_HBOND_ACCEPTOR>
10

> <PUBCHEM_CACTVS_HBOND_DONOR>
7

> <PUBCHEM_CACTVS_ROTATABLE_BOND>
3

> <PUBCHEM_CACTVS_SUBSKEYS>
AAADceB4PAAAAAAAAAAAAAAAAAAAAAAAAAA0YIEAAAAAAACBQAAAGgAACAAADBSgmAIwBoAABgCIAqBSAAACCAAkIAAIiAEGCMgNNzaGNRqCeWCl4BULuQfI7PzOIAACCAAIAABAAAQQABAAAAAAAAAAAA==

> <PUBCHEM_CACTVS_TAUTO_COUNT>
57

> <PUBCHEM_CACTVS_TPSA>
177

> <PUBCHEM_COMPONENT_COUNT>
1

> <PUBCHEM_COMPOUND_CANONICALIZED>
1

> <PUBCHEM_COMPOUND_CID>
5280441

> <PUBCHEM_COORDINATE_TYPE>
1
5
255

> <PUBCHEM_EXACT_MASS>
432.10564683

> <PUBCHEM_HEAVY_ATOM_COUNT>
31

> <PUBCHEM_ISOTOPIC_ATOM_COUNT>
0

> <PUBCHEM_IUPAC_CAS_NAME>
5,7-dihydroxy-2-(4-hydroxyphenyl)-8-[(2S,3R,4R,5S,6R)-3,4,5-trihydroxy-6-(hydroxymethyl)-2-oxanyl]-1-benzopyran-4-one

> <PUBCHEM_IUPAC_INCHI>
InChI=1S/C21H20O10/c22-7-14-17(27)18(28)19(29)21(31-14)16-11(25)5-10(24)15-12(26)6-13(30-20(15)16)8-1-3-9(23)4-2-8/h1-6,14,17-19,21-25,27-29H,7H2/t14-,17-,18+,19-,21+/m1/s1

> <PUBCHEM_IUPAC_INCHIKEY>
SGEWCQFRYRRZDC-VPRICQMDSA-N

> <PUBCHEM_IUPAC_NAME>
5,7-dihydroxy-2-(4-hydroxyphenyl)-8-[(2S,3R,4R,5S,6R)-3,4,5-trihydroxy-6-(hydroxymethyl)oxan-2-yl]chromen-4-one

> <PUBCHEM_IUPAC_NAME_MARKUP>
5,7-dihydroxy-2-(4-hydroxyphenyl)-8-[(2<I>S</I>,3<I>R</I>,4<I>R</I>,5<I>S</I>,6<I>R</I>)-3,4,5-trihydroxy-6-(hydroxymethyl)oxan-2-yl]chromen-4-one

> <PUBCHEM_IUPAC_OPENEYE_NAME>
5,7-dihydroxy-2-(4-hydroxyphenyl)-8-[(2S,3R,4R,5S,6R)-3,4,5-trihydroxy-6-(hydroxymethyl)tetrahydropyran-2-yl]chromen-4-one

> <PUBCHEM_IUPAC_SYSTEMATIC_NAME>
8-[(2S,3R,4R,5S,6R)-6-(hydroxymethyl)-3,4,5-tris(oxidanyl)oxan-2-yl]-2-(4-hydroxyphenyl)-5,7-bis(oxidanyl)chromen-4-one

> <PUBCHEM_IUPAC_TRADITIONAL_NAME>
5,7-dihydroxy-2-(4-hydroxyphenyl)-8-[(2S,3R,4R,5S,6R)-3,4,5-trihydroxy-6-methylol-tetrahydropyran-2-yl]chromone

> <PUBCHEM_MOLECULAR_FORMULA>
C21H20O10

> <PUBCHEM_MOLECULAR_WEIGHT>
432.4

> <PUBCHEM_MONOISOTOPIC_WEIGHT>
432.10564683

> <PUBCHEM_OPENEYE_CAN_SMILES>
C1=CC(=CC=C1C2=CC(=O)C3=C(O2)C(=C(C=C3O)O)C4C(C(C(C(O4)CO)O)O)O)O

> <PUBCHEM_OPENEYE_ISO_SMILES>
C1=CC(=CC=C1C2=CC(=O)C3=C(O2)C(=C(C=C3O)O)[C@H]4[C@@H]([C@H]([C@@H]([C@H](O4)CO)O)O)O)O

> <PUBCHEM_TOTAL_CHARGE>
0

> <PUBCHEM_XLOGP3_AA>
0.2

> <RelativeEnergy>
0

> <StereoisomerIndex>
1

> <TautomerIndex>
2

> <LibDock Warning>
no hit found

> <ErrorText>
LibDock failed

$$$$
5280441
  SciTegic09112317153D

 49 52  0  0  0  0            999 V2000
    0.9850    1.6580   -1.3980 O   0  0  0  1  0  0
    1.8450    0.7130    2.0610 O   0  0  0  1  0  0
    2.3250    3.7420    1.7570 O   0  0  0  1  0  0
   -0.8160    3.4220    0.1360 O   0  0  0  1  0  0
   -0.6790   -1.2880    0.1120 O   0  0  0  1  0  0
    2.7220    4.1270   -2.6890 O   0  0  0  1  0  0
    3.5300    0.2500   -1.2590 O   0  5  0  1  0  0
    2.7750   -4.2220   -1.5770 O   0  0  0  1  0  0
    0.4080   -5.2000   -0.8640 O   0  0  0  1  0  0
   -6.7140   -1.3170    2.3320 O   0  5  0  1  0  0
    1.8280    1.5380    0.9080 C   0  0  2  1  0  0
    1.2630    2.9300    1.2910 C   0  0  2  1  0  0
    0.9730    0.8790   -0.1980 C   0  0  2  1  0  0
    0.5870    3.6210    0.0780 C   0  0  1  1  0  0
    1.1180    3.0770   -1.2710 C   0  0  1  1  0  0
    1.4130   -0.5170   -0.5640 C   0  0  0  1  0  0
    2.5980    3.4140   -1.4810 C   0  0  0  1  0  0
    0.5540   -1.5500   -0.3890 C   0  0  0  1  0  0
    2.7810   -0.7150   -1.1080 C   0  0  0  1  0  0
    0.9870   -2.9280   -0.7470 C   0  0  0  1  0  0
    3.2160   -1.9460   -1.4400 C   0  0  0  1  0  0
    2.3540   -3.1280   -1.2790 C   0  0  0  1  0  0
    0.1110   -3.9360   -0.5720 C   0  0  0  1  0  0
   -1.5300   -2.3270    0.2720 C   0  0  0  1  0  0
   -1.2160   -3.6050   -0.0350 C   0  0  0  1  0  0
   -2.8960   -2.0600    0.8160 C   0  0  0  1  0  0
   -3.5830   -3.0660    1.5180 C   0  0  0  1  0  0
   -3.4970   -0.8010    0.6270 C   0  0  0  1  0  0
   -4.8700   -2.8160    2.0280 C   0  0  0  1  0  0
   -4.7820   -0.5520    1.1360 C   0  0  0  1  0  0
   -5.4690   -1.5590    1.8370 C   0  0  0  1  0  0
    2.8620    1.6080    0.5610 H   0  0  0  1  0  0
    0.5570    2.8600    2.1230 H   0  0  0  1  0  0
   -0.0630    0.8320    0.1370 H   0  0  0  1  0  0
    0.7160    4.7050    0.1130 H   0  0  0  1  0  0
    0.5650    3.5170   -2.1020 H   0  0  0  1  0  0
    3.1930    2.5040   -1.5610 H   0  0  0  1  0  0
    2.9670    4.0460   -0.6730 H   0  0  0  1  0  0
    4.2170   -2.0730   -1.8340 H   0  0  0  1  0  0
   -1.9270   -4.4070    0.1060 H   0  0  0  1  0  0
   -3.1320   -4.0350    1.6710 H   0  0  0  1  0  0
   -2.9780   -0.0240    0.0880 H   0  0  0  1  0  0
   -5.3930   -3.5900    2.5690 H   0  0  0  1  0  0
   -5.2410    0.4140    0.9880 H   0  0  0  1  0  0
    2.6670    0.2000    2.0340 H   0  0  0  1  0  0
    1.9300    4.4820    2.2440 H   0  0  0  1  0  0
   -1.2190    4.0380   -0.4930 H   0  0  0  1  0  0
    3.6630    4.3330   -2.8050 H   0  0  0  1  0  0
    0.9450   -5.3900   -1.6440 H   0  0  0  1  0  0
  1 13  1  0
  1 15  1  0
  2 11  1  0
  2 45  1  0
  3 12  1  0
  3 46  1  0
  4 14  1  0
  4 47  1  0
  5 18  1  0
  5 24  1  0
  6 17  1  0
  6 48  1  0
  7 19  1  0
  8 22  2  0
  9 23  1  0
  9 49  1  0
 10 31  1  0
 11 12  1  0
 11 13  1  0
 11 32  1  0
 12 14  1  0
 12 33  1  0
 13 16  1  0
 13 34  1  0
 14 15  1  0
 14 35  1  0
 15 17  1  0
 15 36  1  0
 16 18  2  0
 16 19  1  0
 17 37  1  0
 17 38  1  0
 18 20  1  0
 19 21  2  0
 20 22  1  0
 20 23  2  0
 21 22  1  0
 21 39  1  0
 23 25  1  0
 24 25  2  0
 24 26  1  0
 25 40  1  0
 26 27  2  0
 26 28  1  0
 27 29  1  0
 27 41  1  0
 28 30  2  0
 28 42  1  0
 29 31  2  0
 29 43  1  0
 30 31  1  0
 30 44  1  0
M  CHG  2   7  -1  10  -1
M  END
> <Name>
5280441

> <AbsoluteEnergy>
40.898

> <ConfNumber>
1

> <Ionization pH>
7.49_DDP

> <IonizationIndex>
3

> <NumberOfIonizations>
3

> <NumberOfStereoisomers>
1

> <NumberOfTautomers>
2

> <OBJECTID>
9223375438472216589

> <PUBCHEM_ATOM_DEF_STEREO_COUNT>
5

> <PUBCHEM_ATOM_UDEF_STEREO_COUNT>
0

> <PUBCHEM_BONDANNOTATIONS>
13  34  5
15  17  6
16  18  8
16  19  8
18  20  8
19  21  8
11  2  5
20  22  8
20  23  8
21  22  8
23  25  8
24  25  8
26  27  8
26  28  8
27  29  8
28  30  8
29  31  8
12  3  6
30  31  8
14  4  5
5  18  8
5  24  8

> <PUBCHEM_BOND_DEF_STEREO_COUNT>
0

> <PUBCHEM_BOND_UDEF_STEREO_COUNT>
0

> <PUBCHEM_CACTVS_COMPLEXITY>
690

> <PUBCHEM_CACTVS_HBOND_ACCEPTOR>
10

> <PUBCHEM_CACTVS_HBOND_DONOR>
7

> <PUBCHEM_CACTVS_ROTATABLE_BOND>
3

> <PUBCHEM_CACTVS_SUBSKEYS>
AAADceB4PAAAAAAAAAAAAAAAAAAAAAAAAAA0YIEAAAAAAACBQAAAGgAACAAADBSgmAIwBoAABgCIAqBSAAACCAAkIAAIiAEGCMgNNzaGNRqCeWCl4BULuQfI7PzOIAACCAAIAABAAAQQABAAAAAAAAAAAA==

> <PUBCHEM_CACTVS_TAUTO_COUNT>
57

> <PUBCHEM_CACTVS_TPSA>
177

> <PUBCHEM_COMPONENT_COUNT>
1

> <PUBCHEM_COMPOUND_CANONICALIZED>
1

> <PUBCHEM_COMPOUND_CID>
5280441

> <PUBCHEM_COORDINATE_TYPE>
1
5
255

> <PUBCHEM_EXACT_MASS>
432.10564683

> <PUBCHEM_HEAVY_ATOM_COUNT>
31

> <PUBCHEM_ISOTOPIC_ATOM_COUNT>
0

> <PUBCHEM_IUPAC_CAS_NAME>
5,7-dihydroxy-2-(4-hydroxyphenyl)-8-[(2S,3R,4R,5S,6R)-3,4,5-trihydroxy-6-(hydroxymethyl)-2-oxanyl]-1-benzopyran-4-one

> <PUBCHEM_IUPAC_INCHI>
InChI=1S/C21H20O10/c22-7-14-17(27)18(28)19(29)21(31-14)16-11(25)5-10(24)15-12(26)6-13(30-20(15)16)8-1-3-9(23)4-2-8/h1-6,14,17-19,21-25,27-29H,7H2/t14-,17-,18+,19-,21+/m1/s1

> <PUBCHEM_IUPAC_INCHIKEY>
SGEWCQFRYRRZDC-VPRICQMDSA-N

> <PUBCHEM_IUPAC_NAME>
5,7-dihydroxy-2-(4-hydroxyphenyl)-8-[(2S,3R,4R,5S,6R)-3,4,5-trihydroxy-6-(hydroxymethyl)oxan-2-yl]chromen-4-one

> <PUBCHEM_IUPAC_NAME_MARKUP>
5,7-dihydroxy-2-(4-hydroxyphenyl)-8-[(2<I>S</I>,3<I>R</I>,4<I>R</I>,5<I>S</I>,6<I>R</I>)-3,4,5-trihydroxy-6-(hydroxymethyl)oxan-2-yl]chromen-4-one

> <PUBCHEM_IUPAC_OPENEYE_NAME>
5,7-dihydroxy-2-(4-hydroxyphenyl)-8-[(2S,3R,4R,5S,6R)-3,4,5-trihydroxy-6-(hydroxymethyl)tetrahydropyran-2-yl]chromen-4-one

> <PUBCHEM_IUPAC_SYSTEMATIC_NAME>
8-[(2S,3R,4R,5S,6R)-6-(hydroxymethyl)-3,4,5-tris(oxidanyl)oxan-2-yl]-2-(4-hydroxyphenyl)-5,7-bis(oxidanyl)chromen-4-one

> <PUBCHEM_IUPAC_TRADITIONAL_NAME>
5,7-dihydroxy-2-(4-hydroxyphenyl)-8-[(2S,3R,4R,5S,6R)-3,4,5-trihydroxy-6-methylol-tetrahydropyran-2-yl]chromone

> <PUBCHEM_MOLECULAR_FORMULA>
C21H20O10

> <PUBCHEM_MOLECULAR_WEIGHT>
432.4

> <PUBCHEM_MONOISOTOPIC_WEIGHT>
432.10564683

> <PUBCHEM_OPENEYE_CAN_SMILES>
C1=CC(=CC=C1C2=CC(=O)C3=C(O2)C(=C(C=C3O)O)C4C(C(C(C(O4)CO)O)O)O)O

> <PUBCHEM_OPENEYE_ISO_SMILES>
C1=CC(=CC=C1C2=CC(=O)C3=C(O2)C(=C(C=C3O)O)[C@H]4[C@@H]([C@H]([C@@H]([C@H](O4)CO)O)O)O)O

> <PUBCHEM_TOTAL_CHARGE>
0

> <PUBCHEM_XLOGP3_AA>
0.2

> <RelativeEnergy>
0

> <StereoisomerIndex>
1

> <TautomerIndex>
2

> <LibDock Warning>
no hit found

> <ErrorText>
LibDock failed

$$$$
5280637
  SciTegic09112317153D

 52 55  0  0  0  0            999 V2000
    2.3240    1.4960    0.7280 O   0  0  0  1  0  0
    2.8100   -0.1680   -0.8030 O   0  0  0  1  0  0
    6.1160    2.0090    1.9340 O   0  0  0  1  0  0
    3.1100    0.9960    3.5280 O   0  0  0  1  0  0
    5.3880   -0.4860    0.2600 O   0  0  0  1  0  0
    3.5870    4.7390    1.5940 O   0  0  0  1  0  0
   -1.8940   -0.7620   -1.1400 O   0  0  0  1  0  0
    1.1100   -4.4650   -0.3210 O   0  0  0  1  0  0
   -1.5170   -4.8790   -0.5230 O   0  0  0  1  0  0
   -5.8660    2.2310   -2.0110 O   0  0  0  1  0  0
   -8.0810    0.6290   -1.9130 O   0  0  0  1  0  0
    5.0000    1.1410    2.0120 C   0  0  1  1  0  0
    3.8160    1.8870    2.6820 C   0  0  1  1  0  0
    4.6350    0.6680    0.5820 C   0  0  2  1  0  0
    2.8330    2.4760    1.6390 C   0  0  1  1  0  0
    3.1290    0.3440    0.4840 C   0  0  1  1  0  0
    3.4860    3.5790    0.7990 C   0  0  0  1  0  0
    1.7850   -1.0160   -0.7690 C   0  0  0  1  0  0
    0.4070   -0.5110   -0.9680 C   0  0  0  1  0  0
    2.0020   -2.3300   -0.5570 C   0  0  0  1  0  0
   -0.6740   -1.3180   -0.9490 C   0  0  0  1  0  0
   -0.4880   -2.7760   -0.7230 C   0  0  0  1  0  0
    0.8870   -3.2920   -0.5170 C   0  0  0  1  0  0
   -1.5840   -3.5620   -0.7160 C   0  0  0  1  0  0
   -2.9670   -1.5840   -1.1250 C   0  0  0  1  0  0
   -2.8850   -2.9200   -0.9310 C   0  0  0  1  0  0
   -4.3260   -0.9970   -1.3340 C   0  0  0  1  0  0
   -4.4670    0.3820   -1.5820 C   0  0  0  1  0  0
   -5.4650   -1.8170   -1.2840 C   0  0  0  1  0  0
   -5.7410    0.9390   -1.7800 C   0  0  0  1  0  0
   -6.7410   -1.2620   -1.4820 C   0  0  0  1  0  0
   -6.8820    0.1150   -1.7290 C   0  0  0  1  0  0
    5.3190    0.3040    2.6410 H   0  0  0  1  0  0
    4.1690    2.6810    3.3440 H   0  0  0  1  0  0
    4.8770    1.4260   -0.1680 H   0  0  0  1  0  0
    1.9690    2.9180    2.1380 H   0  0  0  1  0  0
    2.8570   -0.4130    1.2220 H   0  0  0  1  0  0
    4.4890    3.2870    0.4930 H   0  0  0  1  0  0
    2.8690    3.8170   -0.0690 H   0  0  0  1  0  0
    0.2660    0.5460   -1.1310 H   0  0  0  1  0  0
    3.0130   -2.6830   -0.4130 H   0  0  0  1  0  0
   -3.7720   -3.5400   -0.9280 H   0  0  0  1  0  0
   -3.5950    1.0190   -1.6210 H   0  0  0  1  0  0
   -5.3680   -2.8770   -1.0950 H   0  0  0  1  0  0
   -7.6130   -1.8960   -1.4420 H   0  0  0  1  0  0
    6.8520    1.4980    1.5620 H   0  0  0  1  0  0
    2.4140    1.5090    3.9690 H   0  0  0  1  0  0
    5.2940   -0.6300   -0.6960 H   0  0  0  1  0  0
    4.0030    5.4250    1.0470 H   0  0  0  1  0  0
   -6.7460    2.6040   -2.1460 H   0  0  0  1  0  0
   -8.8550    0.0510   -1.8770 H   0  0  0  1  0  0
   -0.6530   -5.2970   -0.4100 H   0  0  0  1  0  0
  1 15  1  0
  1 16  1  0
  2 16  1  0
  2 18  1  0
  3 12  1  0
  3 46  1  0
  4 13  1  0
  4 47  1  0
  5 14  1  0
  5 48  1  0
  6 17  1  0
  6 49  1  0
  7 21  1  0
  7 25  1  0
  8 23  2  0
  9 24  1  0
  9 52  1  0
 10 30  1  0
 10 50  1  0
 11 32  1  0
 11 51  1  0
 12 13  1  0
 12 14  1  0
 12 33  1  0
 13 15  1  0
 13 34  1  0
 14 16  1  0
 14 35  1  0
 15 17  1  0
 15 36  1  0
 16 37  1  0
 17 38  1  0
 17 39  1  0
 18 19  1  0
 18 20  2  0
 19 21  2  0
 19 40  1  0
 20 23  1  0
 20 41  1  0
 21 22  1  0
 22 23  1  0
 22 24  2  0
 24 26  1  0
 25 26  2  0
 25 27  1  0
 26 42  1  0
 27 28  2  0
 27 29  1  0
 28 30  1  0
 28 43  1  0
 29 31  2  0
 29 44  1  0
 30 32  2  0
 31 32  1  0
 31 45  1  0
M  END
> <Name>
5280637

> <AbsoluteEnergy>
51.7231

> <ConfNumber>
1

> <Ionization pH>
7.5

> <IonizationIndex>
1

> <NumberOfIonizations>
1

> <NumberOfStereoisomers>
1

> <NumberOfTautomers>
3

> <OBJECTID>
9223375451357118477

> <PUBCHEM_ATOM_DEF_STEREO_COUNT>
5

> <PUBCHEM_ATOM_UDEF_STEREO_COUNT>
0

> <PUBCHEM_BONDANNOTATIONS>
15  17  5
18  19  8
18  20  8
19  21  8
16  2  5
20  23  8
21  22  8
22  23  8
22  24  8
24  26  8
25  26  8
27  28  8
27  29  8
28  30  8
29  31  8
12  3  5
30  32  8
31  32  8
13  4  6
14  5  6
7  21  8
7  25  8

> <PUBCHEM_BOND_DEF_STEREO_COUNT>
0

> <PUBCHEM_BOND_UDEF_STEREO_COUNT>
0

> <PUBCHEM_CACTVS_COMPLEXITY>
714

> <PUBCHEM_CACTVS_HBOND_ACCEPTOR>
11

> <PUBCHEM_CACTVS_HBOND_DONOR>
7

> <PUBCHEM_CACTVS_ROTATABLE_BOND>
4

> <PUBCHEM_CACTVS_SUBSKEYS>
AAADceB4PAAAAAAAAAAAAAAAAAAAAAAAAAA0YIEAAAAAAACBQAAAGgAACAAADBSwmAMwDoAABgCIAqBSAAACCAAkIAAIiAEGiMgdNzaGNRqieWGl4BUPuQfI7LzOIAABCAAIQABAAAIQABCAAAAAAAAAAA==

> <PUBCHEM_CACTVS_TAUTO_COUNT>
68

> <PUBCHEM_CACTVS_TPSA>
186

> <PUBCHEM_COMPONENT_COUNT>
1

> <PUBCHEM_COMPOUND_CANONICALIZED>
1

> <PUBCHEM_COMPOUND_CID>
5280637

> <PUBCHEM_COORDINATE_TYPE>
1
5
255

> <PUBCHEM_EXACT_MASS>
448.10056145

> <PUBCHEM_HEAVY_ATOM_COUNT>
32

> <PUBCHEM_ISOTOPIC_ATOM_COUNT>
0

> <PUBCHEM_IUPAC_CAS_NAME>
2-(3,4-dihydroxyphenyl)-5-hydroxy-7-[[(2S,3R,4S,5S,6R)-3,4,5-trihydroxy-6-(hydroxymethyl)-2-oxanyl]oxy]-1-benzopyran-4-one

> <PUBCHEM_IUPAC_INCHI>
InChI=1S/C21H20O11/c22-7-16-18(27)19(28)20(29)21(32-16)30-9-4-12(25)17-13(26)6-14(31-15(17)5-9)8-1-2-10(23)11(24)3-8/h1-6,16,18-25,27-29H,7H2/t16-,18-,19+,20-,21-/m1/s1

> <PUBCHEM_IUPAC_INCHIKEY>
PEFNSGRTCBGNAN-QNDFHXLGSA-N

> <PUBCHEM_IUPAC_NAME>
2-(3,4-dihydroxyphenyl)-5-hydroxy-7-[(2S,3R,4S,5S,6R)-3,4,5-trihydroxy-6-(hydroxymethyl)oxan-2-yl]oxychromen-4-one

> <PUBCHEM_IUPAC_NAME_MARKUP>
2-(3,4-dihydroxyphenyl)-5-hydroxy-7-[(2<I>S</I>,3<I>R</I>,4<I>S</I>,5<I>S</I>,6<I>R</I>)-3,4,5-trihydroxy-6-(hydroxymethyl)oxan-2-yl]oxychromen-4-one

> <PUBCHEM_IUPAC_OPENEYE_NAME>
2-(3,4-dihydroxyphenyl)-5-hydroxy-7-[(2S,3R,4S,5S,6R)-3,4,5-trihydroxy-6-(hydroxymethyl)tetrahydropyran-2-yl]oxy-chromen-4-one

> <PUBCHEM_IUPAC_SYSTEMATIC_NAME>
2-[3,4-bis(oxidanyl)phenyl]-7-[(2S,3R,4S,5S,6R)-6-(hydroxymethyl)-3,4,5-tris(oxidanyl)oxan-2-yl]oxy-5-oxidanyl-chromen-4-one

> <PUBCHEM_IUPAC_TRADITIONAL_NAME>
2-(3,4-dihydroxyphenyl)-5-hydroxy-7-[(2S,3R,4S,5S,6R)-3,4,5-trihydroxy-6-methylol-tetrahydropyran-2-yl]oxy-chromone

> <PUBCHEM_MOLECULAR_FORMULA>
C21H20O11

> <PUBCHEM_MOLECULAR_WEIGHT>
448.4

> <PUBCHEM_MONOISOTOPIC_WEIGHT>
448.10056145

> <PUBCHEM_OPENEYE_CAN_SMILES>
C1=CC(=C(C=C1C2=CC(=O)C3=C(C=C(C=C3O2)OC4C(C(C(C(O4)CO)O)O)O)O)O)O

> <PUBCHEM_OPENEYE_ISO_SMILES>
C1=CC(=C(C=C1C2=CC(=O)C3=C(C=C(C=C3O2)O[C@H]4[C@@H]([C@H]([C@@H]([C@H](O4)CO)O)O)O)O)O)O

> <PUBCHEM_TOTAL_CHARGE>
0

> <PUBCHEM_XLOGP3_AA>
0.5

> <RelativeEnergy>
0

> <StereoisomerIndex>
1

> <TautomerIndex>
2

> <LibDock Warning>
no hit found

> <ErrorText>
LibDock failed

$$$$
5280804
  SciTegic09112317153D

 53 56  0  0  0  0            999 V2000
    0.5250   -2.1740   -0.7700 O   0  0  0  1  0  0
    0.9920   -0.6230    0.8840 O   0  0  0  1  0  0
    2.8660   -0.2140   -3.5640 O   0  0  0  1  0  0
    0.9780   -2.2710   -4.3870 O   0  0  0  1  0  0
    2.0150    1.1390   -1.1250 O   0  0  0  1  0  0
   -0.7310   -4.2770   -3.3870 O   0  0  0  1  0  0
   -1.2330    2.0760    1.7660 O   0  0  0  1  0  0
    2.8310    1.1540    1.9550 O   0  0  0  1  0  0
    3.1780    3.5350    3.0850 O   0  0  0  1  0  0
   -0.4790    6.3170    3.7640 O   0  0  0  1  0  0
   -4.4470   -0.1590   -1.6850 O   0  0  0  1  0  0
   -4.4140   -2.7740   -0.8820 O   0  0  0  1  0  0
    1.6910   -0.5450   -2.8440 C   0  0  1  1  0  0
    1.3560   -2.0380   -3.0420 C   0  0  1  1  0  0
    1.9000   -0.2570   -1.3390 C   0  0  2  1  0  0
    0.1980   -2.4840   -2.1190 C   0  0  1  1  0  0
    0.7190   -0.7920   -0.5010 C   0  0  1  1  0  0
   -0.0630   -3.9940   -2.1800 C   0  0  0  1  0  0
    0.5610    0.5520    1.3470 C   0  0  0  1  0  0
   -0.7500    0.8960    1.3070 C   0  0  0  1  0  0
    1.5430    1.4900    1.9150 C   0  0  0  1  0  0
    1.0990    2.6730    2.3800 C   0  0  0  1  0  0
   -0.3550    2.9570    2.2880 C   0  0  0  1  0  0
   -1.7240   -0.0790    0.7260 C   0  0  0  1  0  0
    1.9850    3.7030    2.9740 C   0  0  0  1  0  0
   -0.8270    4.1370    2.7450 C   0  0  0  1  0  0
   -2.6580    0.3470   -0.2350 C   0  0  0  1  0  0
   -1.7070   -1.4220    1.1370 C   0  0  0  1  0  0
    1.3770    4.9610    3.4410 C   0  0  0  1  0  0
    0.0490    5.1730    3.3370 C   0  0  0  1  0  0
   -3.5750   -0.5660   -0.7840 C   0  0  0  1  0  0
   -2.6220   -2.3360    0.5880 C   0  0  0  1  0  0
   -3.5590   -1.9120   -0.3720 C   0  0  0  1  0  0
    0.8770    0.0730   -3.2290 H   0  0  0  1  0  0
    2.2360   -2.6510   -2.8390 H   0  0  0  1  0  0
    2.8250   -0.7180   -0.9920 H   0  0  0  1  0  0
   -0.7210   -1.9510   -2.3670 H   0  0  0  1  0  0
   -0.2080   -0.2620   -0.7290 H   0  0  0  1  0  0
    0.8770   -4.5460   -2.1730 H   0  0  0  1  0  0
   -0.7020   -4.3080   -1.3550 H   0  0  0  1  0  0
   -1.8870    4.3380    2.6770 H   0  0  0  1  0  0
   -2.6760    1.3790   -0.5560 H   0  0  0  1  0  0
   -0.9920   -1.7600    1.8740 H   0  0  0  1  0  0
    2.0040    5.7240    3.8740 H   0  0  0  1  0  0
   -2.6080   -3.3670    0.9080 H   0  0  0  1  0  0
    3.0410    0.7290   -3.4210 H   0  0  0  1  0  0
    0.9290   -3.2310   -4.5090 H   0  0  0  1  0  0
    2.3810    1.2600   -0.2350 H   0  0  0  1  0  0
   -0.8870   -5.2350   -3.4100 H   0  0  0  1  0  0
   -1.4300    6.4580    3.6830 H   0  0  0  1  0  0
   -5.0750   -0.7930   -2.0580 H   0  0  0  1  0  0
   -4.3890   -3.6950   -0.5900 H   0  0  0  1  0  0
    3.1070    0.2920    1.6130 H   0  0  0  1  0  0
  1 16  1  0
  1 17  1  0
  2 17  1  0
  2 19  1  0
  3 13  1  0
  3 46  1  0
  4 14  1  0
  4 47  1  0
  5 15  1  0
  5 48  1  0
  6 18  1  0
  6 49  1  0
  7 20  1  0
  7 23  1  0
  8 21  1  0
  8 53  1  0
  9 25  2  0
 10 30  1  0
 10 50  1  0
 11 31  1  0
 11 51  1  0
 12 33  1  0
 12 52  1  0
 13 14  1  0
 13 15  1  0
 13 34  1  0
 14 16  1  0
 14 35  1  0
 15 17  1  0
 15 36  1  0
 16 18  1  0
 16 37  1  0
 17 38  1  0
 18 39  1  0
 18 40  1  0
 19 20  2  0
 19 21  1  0
 20 24  1  0
 21 22  2  0
 22 23  1  0
 22 25  1  0
 23 26  2  0
 24 27  2  0
 24 28  1  0
 25 29  1  0
 26 30  1  0
 26 41  1  0
 27 31  1  0
 27 42  1  0
 28 32  2  0
 28 43  1  0
 29 30  2  0
 29 44  1  0
 31 33  2  0
 32 33  1  0
 32 45  1  0
M  END
> <Name>
5280804

> <AbsoluteEnergy>
47.9553

> <ConfNumber>
1

> <Ionization pH>
7.5

> <IonizationIndex>
1

> <NumberOfIonizations>
1

> <NumberOfStereoisomers>
1

> <NumberOfTautomers>
4

> <OBJECTID>
9223375464242020365

> <PUBCHEM_ATOM_DEF_STEREO_COUNT>
5

> <PUBCHEM_ATOM_UDEF_STEREO_COUNT>
0

> <PUBCHEM_BONDANNOTATIONS>
16  18  5
19  20  8
19  21  8
17  2  5
21  22  8
22  23  8
22  25  8
23  26  8
24  27  8
24  28  8
25  29  8
26  30  8
27  31  8
28  32  8
29  30  8
13  3  5
31  33  8
32  33  8
14  4  6
15  5  6
7  20  8
7  23  8

> <PUBCHEM_BOND_DEF_STEREO_COUNT>
0

> <PUBCHEM_BOND_UDEF_STEREO_COUNT>
0

> <PUBCHEM_CACTVS_COMPLEXITY>
758

> <PUBCHEM_CACTVS_HBOND_ACCEPTOR>
12

> <PUBCHEM_CACTVS_HBOND_DONOR>
8

> <PUBCHEM_CACTVS_ROTATABLE_BOND>
4

> <PUBCHEM_CACTVS_SUBSKEYS>
AAADceB4PAAAAAAAAAAAAAAAAAAAAAAAAAA0YIEAAAAAAACBQAAAGgAACAAADBSwmAMwDoAABgCIAqBSAAICCAAkIAAIiAFGiMgdNzaGNR6ieWGl4BUPuQfI7LzOIAABCAAIQABAAAIQABCAAAAAAAAAAA==

> <PUBCHEM_CACTVS_TAUTO_COUNT>
162

> <PUBCHEM_CACTVS_TPSA>
207

> <PUBCHEM_COMPONENT_COUNT>
1

> <PUBCHEM_COMPOUND_CANONICALIZED>
1

> <PUBCHEM_COMPOUND_CID>
5280804

> <PUBCHEM_COORDINATE_TYPE>
1
5
255

> <PUBCHEM_EXACT_MASS>
464.09547607

> <PUBCHEM_HEAVY_ATOM_COUNT>
33

> <PUBCHEM_ISOTOPIC_ATOM_COUNT>
0

> <PUBCHEM_IUPAC_CAS_NAME>
2-(3,4-dihydroxyphenyl)-5,7-dihydroxy-3-[[(2S,3R,4S,5S,6R)-3,4,5-trihydroxy-6-(hydroxymethyl)-2-oxanyl]oxy]-1-benzopyran-4-one

> <PUBCHEM_IUPAC_INCHI>
InChI=1S/C21H20O12/c22-6-13-15(27)17(29)18(30)21(32-13)33-20-16(28)14-11(26)4-8(23)5-12(14)31-19(20)7-1-2-9(24)10(25)3-7/h1-5,13,15,17-18,21-27,29-30H,6H2/t13-,15-,17+,18-,21+/m1/s1

> <PUBCHEM_IUPAC_INCHIKEY>
OVSQVDMCBVZWGM-QSOFNFLRSA-N

> <PUBCHEM_IUPAC_NAME>
2-(3,4-dihydroxyphenyl)-5,7-dihydroxy-3-[(2S,3R,4S,5S,6R)-3,4,5-trihydroxy-6-(hydroxymethyl)oxan-2-yl]oxychromen-4-one

> <PUBCHEM_IUPAC_NAME_MARKUP>
2-(3,4-dihydroxyphenyl)-5,7-dihydroxy-3-[(2<I>S</I>,3<I>R</I>,4<I>S</I>,5<I>S</I>,6<I>R</I>)-3,4,5-trihydroxy-6-(hydroxymethyl)oxan-2-yl]oxychromen-4-one

> <PUBCHEM_IUPAC_OPENEYE_NAME>
2-(3,4-dihydroxyphenyl)-5,7-dihydroxy-3-[(2S,3R,4S,5S,6R)-3,4,5-trihydroxy-6-(hydroxymethyl)tetrahydropyran-2-yl]oxy-chromen-4-one

> <PUBCHEM_IUPAC_SYSTEMATIC_NAME>
2-[3,4-bis(oxidanyl)phenyl]-3-[(2S,3R,4S,5S,6R)-6-(hydroxymethyl)-3,4,5-tris(oxidanyl)oxan-2-yl]oxy-5,7-bis(oxidanyl)chromen-4-one

> <PUBCHEM_IUPAC_TRADITIONAL_NAME>
2-(3,4-dihydroxyphenyl)-5,7-dihydroxy-3-[(2S,3R,4S,5S,6R)-3,4,5-trihydroxy-6-methylol-tetrahydropyran-2-yl]oxy-chromone

> <PUBCHEM_MOLECULAR_FORMULA>
C21H20O12

> <PUBCHEM_MOLECULAR_WEIGHT>
464.4

> <PUBCHEM_MONOISOTOPIC_WEIGHT>
464.09547607

> <PUBCHEM_OPENEYE_CAN_SMILES>
C1=CC(=C(C=C1C2=C(C(=O)C3=C(C=C(C=C3O2)O)O)OC4C(C(C(C(O4)CO)O)O)O)O)O

> <PUBCHEM_OPENEYE_ISO_SMILES>
C1=CC(=C(C=C1C2=C(C(=O)C3=C(C=C(C=C3O2)O)O)O[C@H]4[C@@H]([C@H]([C@@H]([C@H](O4)CO)O)O)O)O)O

> <PUBCHEM_TOTAL_CHARGE>
0

> <PUBCHEM_XLOGP3_AA>
0.4

> <RelativeEnergy>
0

> <StereoisomerIndex>
1

> <TautomerIndex>
2

> <LibDock Warning>
no hit found

> <ErrorText>
LibDock failed

$$$$
5280804
  SciTegic09112317153D

 53 56  0  0  0  0            999 V2000
    0.1060   -0.3310   -1.2280 O   0  0  0  1  0  0
    0.3090   -1.2640    0.8790 O   0  0  0  1  0  0
    2.5640   -2.9420   -3.0270 O   0  0  0  1  0  0
    2.5990    0.5720   -2.5260 O   0  0  0  1  0  0
    2.5100   -2.8030    0.0610 O   0  0  0  1  0  0
   -0.4510   -1.5040   -4.5780 O   0  0  0  1  0  0
   -1.7120    1.5790    1.8070 O   0  0  0  1  0  0
   -2.1580   -2.1880    0.0670 O   0  0  0  1  0  0
   -4.7770   -1.8960    0.1460 O   0  0  0  1  0  0
   -6.2000    2.4580    0.9690 O   0  0  0  1  0  0
    2.6870    4.2250    2.2700 O   0  0  0  1  0  0
    4.3700    2.4540    3.5030 O   0  0  0  1  0  0
    2.5230   -1.8270   -2.1570 C   0  0  1  1  0  0
    1.9180   -0.6120   -2.9100 C   0  0  1  1  0  0
    1.6780   -2.1950   -0.9110 C   0  0  2  1  0  0
    0.4070   -0.4400   -2.6230 C   0  0  1  1  0  0
    1.0150   -0.9380   -0.3090 C   0  0  1  1  0  0
   -0.4170   -1.6110   -3.1720 C   0  0  0  1  0  0
   -0.7550   -0.4820    1.0680 C   0  0  0  1  0  0
   -0.6610    0.7390    1.6470 C   0  0  0  1  0  0
   -2.0650   -0.9810    0.6280 C   0  0  0  1  0  0
   -3.1430   -0.1960    0.8130 C   0  0  0  1  0  0
   -2.9180    1.1680    1.3650 C   0  0  0  1  0  0
    0.6750    1.1950    2.1410 C   0  0  0  1  0  0
   -4.5250   -0.6380    0.5000 C   0  0  0  1  0  0
   -3.9490    2.0340    1.4300 C   0  0  0  1  0  0
    1.0700    2.5350    1.9710 C   0  0  0  1  0  0
    1.5410    0.2870    2.7740 C   0  0  0  1  0  0
   -5.5390    0.2480    0.5860 C   0  0  0  1  0  0
   -5.3010    1.6460    0.9940 C   0  0  0  1  0  0
    2.3240    2.9670    2.4320 C   0  0  0  1  0  0
    2.7970    0.7170    3.2350 C   0  0  0  1  0  0
    3.1920    2.0570    3.0670 C   0  0  0  1  0  0
    3.5640   -1.6210   -1.8890 H   0  0  0  1  0  0
    2.0830   -0.6910   -3.9870 H   0  0  0  1  0  0
    0.8980   -2.9200   -1.1540 H   0  0  0  1  0  0
    0.0310    0.4680   -3.0940 H   0  0  0  1  0  0
    1.7740   -0.1980   -0.0550 H   0  0  0  1  0  0
    0.0470   -2.5620   -2.9130 H   0  0  0  1  0  0
   -1.4410   -1.5670   -2.8030 H   0  0  0  1  0  0
   -3.7820    3.0350    1.8070 H   0  0  0  1  0  0
    0.4090    3.2380    1.4850 H   0  0  0  1  0  0
    1.2470   -0.7450    2.9090 H   0  0  0  1  0  0
   -6.5440   -0.0680    0.3570 H   0  0  0  1  0  0
    3.4580    0.0180    3.7210 H   0  0  0  1  0  0
    2.9820   -3.6700   -2.5400 H   0  0  0  1  0  0
    2.2210    1.3000   -3.0450 H   0  0  0  1  0  0
    1.9370   -3.0820    0.7920 H   0  0  0  1  0  0
   -0.9740   -2.2530   -4.9060 H   0  0  0  1  0  0
   -5.6860   -2.1580   -0.0540 H   0  0  0  1  0  0
    3.5520    4.5130    2.5910 H   0  0  0  1  0  0
    4.9530    1.8170    3.9350 H   0  0  0  1  0  0
   -1.3620   -2.7290   -0.0280 H   0  0  0  1  0  0
  1 16  1  0
  1 17  1  0
  2 17  1  0
  2 19  1  0
  3 13  1  0
  3 46  1  0
  4 14  1  0
  4 47  1  0
  5 15  1  0
  5 48  1  0
  6 18  1  0
  6 49  1  0
  7 20  1  0
  7 23  1  0
  8 21  1  0
  8 53  1  0
  9 25  1  0
  9 50  1  0
 10 30  2  0
 11 31  1  0
 11 51  1  0
 12 33  1  0
 12 52  1  0
 13 14  1  0
 13 15  1  0
 13 34  1  0
 14 16  1  0
 14 35  1  0
 15 17  1  0
 15 36  1  0
 16 18  1  0
 16 37  1  0
 17 38  1  0
 18 39  1  0
 18 40  1  0
 19 20  2  0
 19 21  1  0
 20 24  1  0
 21 22  2  0
 22 23  1  0
 22 25  1  0
 23 26  2  0
 24 27  2  0
 24 28  1  0
 25 29  2  0
 26 30  1  0
 26 41  1  0
 27 31  1  0
 27 42  1  0
 28 32  2  0
 28 43  1  0
 29 30  1  0
 29 44  1  0
 31 33  2  0
 32 33  1  0
 32 45  1  0
M  END
> <Name>
5280804

> <AbsoluteEnergy>
48.0247

> <ConfNumber>
1

> <Ionization pH>
7.5

> <IonizationIndex>
1

> <NumberOfIonizations>
1

> <NumberOfStereoisomers>
1

> <NumberOfTautomers>
4

> <OBJECTID>
9223375468536987661

> <PUBCHEM_ATOM_DEF_STEREO_COUNT>
5

> <PUBCHEM_ATOM_UDEF_STEREO_COUNT>
0

> <PUBCHEM_BONDANNOTATIONS>
16  18  5
19  20  8
19  21  8
17  2  5
21  22  8
22  23  8
22  25  8
23  26  8
24  27  8
24  28  8
25  29  8
26  30  8
27  31  8
28  32  8
29  30  8
13  3  5
31  33  8
32  33  8
14  4  6
15  5  6
7  20  8
7  23  8

> <PUBCHEM_BOND_DEF_STEREO_COUNT>
0

> <PUBCHEM_BOND_UDEF_STEREO_COUNT>
0

> <PUBCHEM_CACTVS_COMPLEXITY>
758

> <PUBCHEM_CACTVS_HBOND_ACCEPTOR>
12

> <PUBCHEM_CACTVS_HBOND_DONOR>
8

> <PUBCHEM_CACTVS_ROTATABLE_BOND>
4

> <PUBCHEM_CACTVS_SUBSKEYS>
AAADceB4PAAAAAAAAAAAAAAAAAAAAAAAAAA0YIEAAAAAAACBQAAAGgAACAAADBSwmAMwDoAABgCIAqBSAAICCAAkIAAIiAFGiMgdNzaGNR6ieWGl4BUPuQfI7LzOIAABCAAIQABAAAIQABCAAAAAAAAAAA==

> <PUBCHEM_CACTVS_TAUTO_COUNT>
162

> <PUBCHEM_CACTVS_TPSA>
207

> <PUBCHEM_COMPONENT_COUNT>
1

> <PUBCHEM_COMPOUND_CANONICALIZED>
1

> <PUBCHEM_COMPOUND_CID>
5280804

> <PUBCHEM_COORDINATE_TYPE>
1
5
255

> <PUBCHEM_EXACT_MASS>
464.09547607

> <PUBCHEM_HEAVY_ATOM_COUNT>
33

> <PUBCHEM_ISOTOPIC_ATOM_COUNT>
0

> <PUBCHEM_IUPAC_CAS_NAME>
2-(3,4-dihydroxyphenyl)-5,7-dihydroxy-3-[[(2S,3R,4S,5S,6R)-3,4,5-trihydroxy-6-(hydroxymethyl)-2-oxanyl]oxy]-1-benzopyran-4-one

> <PUBCHEM_IUPAC_INCHI>
InChI=1S/C21H20O12/c22-6-13-15(27)17(29)18(30)21(32-13)33-20-16(28)14-11(26)4-8(23)5-12(14)31-19(20)7-1-2-9(24)10(25)3-7/h1-5,13,15,17-18,21-27,29-30H,6H2/t13-,15-,17+,18-,21+/m1/s1

> <PUBCHEM_IUPAC_INCHIKEY>
OVSQVDMCBVZWGM-QSOFNFLRSA-N

> <PUBCHEM_IUPAC_NAME>
2-(3,4-dihydroxyphenyl)-5,7-dihydroxy-3-[(2S,3R,4S,5S,6R)-3,4,5-trihydroxy-6-(hydroxymethyl)oxan-2-yl]oxychromen-4-one

> <PUBCHEM_IUPAC_NAME_MARKUP>
2-(3,4-dihydroxyphenyl)-5,7-dihydroxy-3-[(2<I>S</I>,3<I>R</I>,4<I>S</I>,5<I>S</I>,6<I>R</I>)-3,4,5-trihydroxy-6-(hydroxymethyl)oxan-2-yl]oxychromen-4-one

> <PUBCHEM_IUPAC_OPENEYE_NAME>
2-(3,4-dihydroxyphenyl)-5,7-dihydroxy-3-[(2S,3R,4S,5S,6R)-3,4,5-trihydroxy-6-(hydroxymethyl)tetrahydropyran-2-yl]oxy-chromen-4-one

> <PUBCHEM_IUPAC_SYSTEMATIC_NAME>
2-[3,4-bis(oxidanyl)phenyl]-3-[(2S,3R,4S,5S,6R)-6-(hydroxymethyl)-3,4,5-tris(oxidanyl)oxan-2-yl]oxy-5,7-bis(oxidanyl)chromen-4-one

> <PUBCHEM_IUPAC_TRADITIONAL_NAME>
2-(3,4-dihydroxyphenyl)-5,7-dihydroxy-3-[(2S,3R,4S,5S,6R)-3,4,5-trihydroxy-6-methylol-tetrahydropyran-2-yl]oxy-chromone

> <PUBCHEM_MOLECULAR_FORMULA>
C21H20O12

> <PUBCHEM_MOLECULAR_WEIGHT>
464.4

> <PUBCHEM_MONOISOTOPIC_WEIGHT>
464.09547607

> <PUBCHEM_OPENEYE_CAN_SMILES>
C1=CC(=C(C=C1C2=C(C(=O)C3=C(C=C(C=C3O2)O)O)OC4C(C(C(C(O4)CO)O)O)O)O)O

> <PUBCHEM_OPENEYE_ISO_SMILES>
C1=CC(=C(C=C1C2=C(C(=O)C3=C(C=C(C=C3O2)O)O)O[C@H]4[C@@H]([C@H]([C@@H]([C@H](O4)CO)O)O)O)O)O

> <PUBCHEM_TOTAL_CHARGE>
0

> <PUBCHEM_XLOGP3_AA>
0.4

> <RelativeEnergy>
0

> <StereoisomerIndex>
1

> <TautomerIndex>
3

> <LibDock Warning>
no hit found

> <ErrorText>
LibDock failed

$$$$
5280804
  SciTegic09112317153D

 53 56  0  0  0  0            999 V2000
    0.5880    1.8650    2.1210 O   0  0  0  1  0  0
   -0.2710   -0.1030    1.2720 O   0  0  0  1  0  0
   -1.5290    4.2010   -0.5570 O   0  0  0  1  0  0
    0.6820    5.3260    0.9750 O   0  0  0  1  0  0
   -1.1760    1.3420   -1.0250 O   0  0  0  1  0  0
    2.7190    2.9570    3.7010 O   0  0  0  1  0  0
   -0.2970   -2.6890   -1.3280 O   0  0  0  1  0  0
    2.2340   -0.6130    1.2340 O   0  0  0  1  0  0
    4.2310   -2.0860    0.1450 O   0  0  0  1  0  0
    3.2230   -5.2870   -3.2360 O   0  0  0  1  0  0
   -4.9650   -2.9730   -2.5190 O   0  0  0  1  0  0
   -6.2250   -1.2090   -0.8050 O   0  0  0  1  0  0
   -0.4370    3.4440   -0.0620 C   0  0  1  1  0  0
    0.0880    4.0700    1.2480 C   0  0  1  1  0  0
   -0.8870    1.9880    0.1990 C   0  0  2  1  0  0
    1.1390    3.1620    1.9260 C   0  0  1  1  0  0
    0.2130    1.1880    0.9300 C   0  0  1  1  0  0
    1.5680    3.6720    3.3050 C   0  0  0  1  0  0
    0.1410   -1.0390    0.4200 C   0  0  0  1  0  0
   -0.8090   -1.7710   -0.4820 C   0  0  0  1  0  0
    1.4690   -1.3120    0.3950 C   0  0  0  1  0  0
    1.9470   -2.3550   -0.5590 C   0  0  0  1  0  0
    1.0100   -3.0100   -1.3940 C   0  0  0  1  0  0
   -2.1580   -1.5920   -0.5270 C   0  0  0  1  0  0
    3.3240   -2.6950   -0.6350 C   0  0  0  1  0  0
    1.4430   -4.0040   -2.3030 C   0  0  0  1  0  0
   -2.9610   -2.3710   -1.5140 C   0  0  0  1  0  0
   -2.9200   -0.6560    0.3500 C   0  0  0  1  0  0
    3.7520   -3.6890   -1.5450 C   0  0  0  1  0  0
    2.8130   -4.3440   -2.3770 C   0  0  0  1  0  0
   -4.3010   -2.2540   -1.6170 C   0  0  0  1  0  0
   -4.2600   -0.5370    0.2500 C   0  0  0  1  0  0
   -5.0230   -1.3240   -0.7300 C   0  0  0  1  0  0
    0.3500    3.4570   -0.8200 H   0  0  0  1  0  0
   -0.7400    4.2440    1.9380 H   0  0  0  1  0  0
   -1.7990    1.9790    0.7990 H   0  0  0  1  0  0
    2.0220    3.0530    1.2910 H   0  0  0  1  0  0
    1.1020    1.0650    0.3090 H   0  0  0  1  0  0
    1.8260    4.7290    3.2620 H   0  0  0  1  0  0
    0.7870    3.4920    4.0430 H   0  0  0  1  0  0
    0.7270   -4.5020   -2.9370 H   0  0  0  1  0  0
   -2.4750   -3.0640   -2.1860 H   0  0  0  1  0  0
   -2.4630   -0.0370    1.1000 H   0  0  0  1  0  0
    4.7990   -3.9510   -1.6050 H   0  0  0  1  0  0
   -4.7810    0.1490    0.9020 H   0  0  0  1  0  0
   -1.5620    4.0630   -1.5180 H   0  0  0  1  0  0
   -0.0350    5.9790    0.9340 H   0  0  0  1  0  0
   -0.3650    1.3580   -1.5570 H   0  0  0  1  0  0
    2.9770    3.2910    4.5740 H   0  0  0  1  0  0
    4.1900   -1.1290    0.2580 H   0  0  0  1  0  0
    4.1600   -5.5140   -3.2790 H   0  0  0  1  0  0
   -5.9240   -2.8810   -2.5840 H   0  0  0  1  0  0
    2.8400   -1.0820    1.8220 H   0  0  0  1  0  0
  1 16  1  0
  1 17  1  0
  2 17  1  0
  2 19  1  0
  3 13  1  0
  3 46  1  0
  4 14  1  0
  4 47  1  0
  5 15  1  0
  5 48  1  0
  6 18  1  0
  6 49  1  0
  7 20  1  0
  7 23  1  0
  8 21  1  0
  8 53  1  0
  9 25  1  0
  9 50  1  0
 10 30  1  0
 10 51  1  0
 11 31  1  0
 11 52  1  0
 12 33  2  0
 13 14  1  0
 13 15  1  0
 13 34  1  0
 14 16  1  0
 14 35  1  0
 15 17  1  0
 15 36  1  0
 16 18  1  0
 16 37  1  0
 17 38  1  0
 18 39  1  0
 18 40  1  0
 19 20  1  0
 19 21  2  0
 20 24  2  0
 21 22  1  0
 22 23  2  0
 22 25  1  0
 23 26  1  0
 24 27  1  0
 24 28  1  0
 25 29  2  0
 26 30  2  0
 26 41  1  0
 27 31  2  0
 27 42  1  0
 28 32  2  0
 28 43  1  0
 29 30  1  0
 29 44  1  0
 31 33  1  0
 32 33  1  0
 32 45  1  0
M  END
> <Name>
5280804

> <AbsoluteEnergy>
61.3128

> <ConfNumber>
1

> <Ionization pH>
7.5

> <IonizationIndex>
1

> <NumberOfIonizations>
1

> <NumberOfStereoisomers>
1

> <NumberOfTautomers>
4

> <OBJECTID>
9223375472831954957

> <PUBCHEM_ATOM_DEF_STEREO_COUNT>
5

> <PUBCHEM_ATOM_UDEF_STEREO_COUNT>
0

> <PUBCHEM_BONDANNOTATIONS>
16  18  5
19  20  8
19  21  8
17  2  5
21  22  8
22  23  8
22  25  8
23  26  8
24  27  8
24  28  8
25  29  8
26  30  8
27  31  8
28  32  8
29  30  8
13  3  5
31  33  8
32  33  8
14  4  6
15  5  6
7  20  8
7  23  8

> <PUBCHEM_BOND_DEF_STEREO_COUNT>
0

> <PUBCHEM_BOND_UDEF_STEREO_COUNT>
0

> <PUBCHEM_CACTVS_COMPLEXITY>
758

> <PUBCHEM_CACTVS_HBOND_ACCEPTOR>
12

> <PUBCHEM_CACTVS_HBOND_DONOR>
8

> <PUBCHEM_CACTVS_ROTATABLE_BOND>
4

> <PUBCHEM_CACTVS_SUBSKEYS>
AAADceB4PAAAAAAAAAAAAAAAAAAAAAAAAAA0YIEAAAAAAACBQAAAGgAACAAADBSwmAMwDoAABgCIAqBSAAICCAAkIAAIiAFGiMgdNzaGNR6ieWGl4BUPuQfI7LzOIAABCAAIQABAAAIQABCAAAAAAAAAAA==

> <PUBCHEM_CACTVS_TAUTO_COUNT>
162

> <PUBCHEM_CACTVS_TPSA>
207

> <PUBCHEM_COMPONENT_COUNT>
1

> <PUBCHEM_COMPOUND_CANONICALIZED>
1

> <PUBCHEM_COMPOUND_CID>
5280804

> <PUBCHEM_COORDINATE_TYPE>
1
5
255

> <PUBCHEM_EXACT_MASS>
464.09547607

> <PUBCHEM_HEAVY_ATOM_COUNT>
33

> <PUBCHEM_ISOTOPIC_ATOM_COUNT>
0

> <PUBCHEM_IUPAC_CAS_NAME>
2-(3,4-dihydroxyphenyl)-5,7-dihydroxy-3-[[(2S,3R,4S,5S,6R)-3,4,5-trihydroxy-6-(hydroxymethyl)-2-oxanyl]oxy]-1-benzopyran-4-one

> <PUBCHEM_IUPAC_INCHI>
InChI=1S/C21H20O12/c22-6-13-15(27)17(29)18(30)21(32-13)33-20-16(28)14-11(26)4-8(23)5-12(14)31-19(20)7-1-2-9(24)10(25)3-7/h1-5,13,15,17-18,21-27,29-30H,6H2/t13-,15-,17+,18-,21+/m1/s1

> <PUBCHEM_IUPAC_INCHIKEY>
OVSQVDMCBVZWGM-QSOFNFLRSA-N

> <PUBCHEM_IUPAC_NAME>
2-(3,4-dihydroxyphenyl)-5,7-dihydroxy-3-[(2S,3R,4S,5S,6R)-3,4,5-trihydroxy-6-(hydroxymethyl)oxan-2-yl]oxychromen-4-one

> <PUBCHEM_IUPAC_NAME_MARKUP>
2-(3,4-dihydroxyphenyl)-5,7-dihydroxy-3-[(2<I>S</I>,3<I>R</I>,4<I>S</I>,5<I>S</I>,6<I>R</I>)-3,4,5-trihydroxy-6-(hydroxymethyl)oxan-2-yl]oxychromen-4-one

> <PUBCHEM_IUPAC_OPENEYE_NAME>
2-(3,4-dihydroxyphenyl)-5,7-dihydroxy-3-[(2S,3R,4S,5S,6R)-3,4,5-trihydroxy-6-(hydroxymethyl)tetrahydropyran-2-yl]oxy-chromen-4-one

> <PUBCHEM_IUPAC_SYSTEMATIC_NAME>
2-[3,4-bis(oxidanyl)phenyl]-3-[(2S,3R,4S,5S,6R)-6-(hydroxymethyl)-3,4,5-tris(oxidanyl)oxan-2-yl]oxy-5,7-bis(oxidanyl)chromen-4-one

> <PUBCHEM_IUPAC_TRADITIONAL_NAME>
2-(3,4-dihydroxyphenyl)-5,7-dihydroxy-3-[(2S,3R,4S,5S,6R)-3,4,5-trihydroxy-6-methylol-tetrahydropyran-2-yl]oxy-chromone

> <PUBCHEM_MOLECULAR_FORMULA>
C21H20O12

> <PUBCHEM_MOLECULAR_WEIGHT>
464.4

> <PUBCHEM_MONOISOTOPIC_WEIGHT>
464.09547607

> <PUBCHEM_OPENEYE_CAN_SMILES>
C1=CC(=C(C=C1C2=C(C(=O)C3=C(C=C(C=C3O2)O)O)OC4C(C(C(C(O4)CO)O)O)O)O)O

> <PUBCHEM_OPENEYE_ISO_SMILES>
C1=CC(=C(C=C1C2=C(C(=O)C3=C(C=C(C=C3O2)O)O)O[C@H]4[C@@H]([C@H]([C@@H]([C@H](O4)CO)O)O)O)O)O

> <PUBCHEM_TOTAL_CHARGE>
0

> <PUBCHEM_XLOGP3_AA>
0.4

> <RelativeEnergy>
0

> <StereoisomerIndex>
1

> <TautomerIndex>
4

> <LibDock Warning>
no hit found

> <ErrorText>
LibDock failed

$$$$
5280805
  SciTegic09112317153D

 73 77  0  0  0  0            999 V2000
    1.0720   -0.0110   -0.0370 O   0  0  0  1  0  0
    1.1250   -2.7390   -0.7050 O   0  0  0  1  0  0
    1.8870   -3.9920    1.0700 O   0  0  0  1  0  0
    3.8010   -0.0250   -2.4550 O   0  0  0  1  0  0
    3.7480    2.7490   -1.5750 O   0  0  0  1  0  0
   -0.2800    1.6300    0.8750 O   0  0  0  1  0  0
    1.0820    3.5720   -0.7250 O   0  0  0  1  0  0
    1.9230   -4.7360   -2.5610 O   0  0  0  1  0  0
    1.6280   -7.1680   -1.3170 O   0  0  0  1  0  0
    3.2740   -7.3880    1.2940 O   0  0  0  1  0  0
   -3.4850    3.1480    0.3530 O   0  0  0  1  0  0
   -1.7170   -0.4380   -0.0340 O   0  0  0  1  0  0
   -4.1000   -1.4380   -0.9290 O   0  0  0  1  0  0
   -7.7420    1.6240   -1.1970 O   0  0  0  1  0  0
   -1.0610    7.7230    0.5300 O   0  0  0  1  0  0
    0.7330    7.4100    2.5710 O   0  0  0  1  0  0
    1.8650   -0.5080   -1.1080 C   0  0  1  1  0  0
    3.0740    0.4310   -1.3300 C   0  0  2  1  0  0
    2.6190    1.8880   -1.5570 C   0  0  1  1  0  0
    1.6560    2.3120   -0.4280 C   0  0  2  1  0  0
    2.3540   -4.8030   -1.2090 C   0  0  1  1  0  0
    1.3750   -4.0590   -0.2620 C   0  0  2  1  0  0
    2.5640   -6.2700   -0.7350 C   0  0  1  1  0  0
    2.4220   -6.3690    0.8050 C   0  0  2  1  0  0
    0.5210    1.2820   -0.2480 C   0  0  1  1  0  0
    2.2820   -1.9330   -0.7320 C   0  0  0  1  0  0
    2.7840   -5.0250    1.4800 C   0  0  2  1  0  0
    2.7300   -5.0620    3.0110 C   0  0  0  1  0  0
   -1.5670    1.7810    0.5530 C   0  0  0  1  0  0
   -2.1840    2.9820    0.6740 C   0  0  0  1  0  0
   -2.3220    0.6070    0.0550 C   0  0  0  1  0  0
   -3.7510    0.8480   -0.2800 C   0  0  0  1  0  0
   -1.4090    4.1590    1.1780 C   0  0  0  1  0  0
   -4.2750    2.1540   -0.1080 C   0  0  0  1  0  0
   -4.5810   -0.1980   -0.7620 C   0  0  0  1  0  0
   -5.6300    2.4140   -0.4210 C   0  0  0  1  0  0
   -1.6010    5.4290    0.6040 C   0  0  0  1  0  0
   -0.4870    3.9980    2.2280 C   0  0  0  1  0  0
   -5.9350    0.0710   -1.0730 C   0  0  0  1  0  0
   -6.4580    1.3760   -0.9010 C   0  0  0  1  0  0
   -0.8740    6.5370    1.0730 C   0  0  0  1  0  0
    0.2400    5.1060    2.6980 C   0  0  0  1  0  0
    0.0470    6.3760    2.1230 C   0  0  0  1  0  0
    1.2350   -0.5430   -1.9980 H   0  0  0  1  0  0
    3.7390    0.3750   -0.4660 H   0  0  0  1  0  0
    2.1180    1.9750   -2.5230 H   0  0  0  1  0  0
    2.2010    2.4150    0.5140 H   0  0  0  1  0  0
    3.3200   -4.2920   -1.1810 H   0  0  0  1  0  0
    0.4230   -4.5890   -0.2230 H   0  0  0  1  0  0
    3.5550   -6.5930   -1.0660 H   0  0  0  1  0  0
    1.4040   -6.6400    1.0960 H   0  0  0  1  0  0
   -0.1280    1.2410   -1.1250 H   0  0  0  1  0  0
    2.9650   -2.3450   -1.4740 H   0  0  0  1  0  0
    2.7320   -1.9540    0.2620 H   0  0  0  1  0  0
    3.7820   -4.7230    1.1630 H   0  0  0  1  0  0
    2.9290   -4.0750    3.4270 H   0  0  0  1  0  0
    1.7540   -5.4040    3.3550 H   0  0  0  1  0  0
    3.4810   -5.7470    3.4050 H   0  0  0  1  0  0
   -6.0300    3.4100   -0.2910 H   0  0  0  1  0  0
   -2.3090    5.5590   -0.2040 H   0  0  0  1  0  0
   -0.3320    3.0280    2.6760 H   0  0  0  1  0  0
   -6.5710   -0.7210   -1.4390 H   0  0  0  1  0  0
    0.9470    4.9790    3.5050 H   0  0  0  1  0  0
    4.4020   -0.7220   -2.1450 H   0  0  0  1  0  0
    3.4750    3.5670   -2.0170 H   0  0  0  1  0  0
    1.7440    4.2500   -0.5160 H   0  0  0  1  0  0
    2.1560   -3.8550   -2.8920 H   0  0  0  1  0  0
    1.9360   -7.3620   -2.2160 H   0  0  0  1  0  0
    2.9350   -7.6550    2.1620 H   0  0  0  1  0  0
   -3.3220   -1.7160   -0.4270 H   0  0  0  1  0  0
   -8.3000    0.9080   -1.5250 H   0  0  0  1  0  0
   -0.7620    8.5110    1.0010 H   0  0  0  1  0  0
    0.7900    8.2070    2.0310 H   0  0  0  1  0  0
  1 17  1  0
  1 25  1  0
  2 22  1  0
  2 26  1  0
  3 22  1  0
  3 27  1  0
  4 18  1  0
  4 64  1  0
  5 19  1  0
  5 65  1  0
  6 25  1  0
  6 29  1  0
  7 20  1  0
  7 66  1  0
  8 21  1  0
  8 67  1  0
  9 23  1  0
  9 68  1  0
 10 24  1  0
 10 69  1  0
 11 30  1  0
 11 34  1  0
 12 31  2  0
 13 35  1  0
 13 70  1  0
 14 40  1  0
 14 71  1  0
 15 41  1  0
 15 72  1  0
 16 43  1  0
 16 73  1  0
 17 18  1  0
 17 26  1  0
 17 44  1  0
 18 19  1  0
 18 45  1  0
 19 20  1  0
 19 46  1  0
 20 25  1  0
 20 47  1  0
 21 22  1  0
 21 23  1  0
 21 48  1  0
 22 49  1  0
 23 24  1  0
 23 50  1  0
 24 27  1  0
 24 51  1  0
 25 52  1  0
 26 53  1  0
 26 54  1  0
 27 28  1  0
 27 55  1  0
 28 56  1  0
 28 57  1  0
 28 58  1  0
 29 30  2  0
 29 31  1  0
 30 33  1  0
 31 32  1  0
 32 34  2  0
 32 35  1  0
 33 37  2  0
 33 38  1  0
 34 36  1  0
 35 39  2  0
 36 40  2  0
 36 59  1  0
 37 41  1  0
 37 60  1  0
 38 42  2  0
 38 61  1  0
 39 40  1  0
 39 62  1  0
 41 43  2  0
 42 43  1  0
 42 63  1  0
M  END
> <Name>
5280805

> <AbsoluteEnergy>
63.1712

> <ConfNumber>
1

> <Ionization pH>
7.5

> <IonizationIndex>
1

> <NumberOfIonizations>
1

> <NumberOfStereoisomers>
1

> <NumberOfTautomers>
4

> <OBJECTID>
9223375477126922253

> <PUBCHEM_ATOM_DEF_STEREO_COUNT>
10

> <PUBCHEM_ATOM_UDEF_STEREO_COUNT>
0

> <PUBCHEM_BONDANNOTATIONS>
24  10  5
11  30  8
11  34  8
17  26  5
22  2  5
27  28  6
29  30  8
29  31  8
31  32  8
32  34  8
32  35  8
33  37  8
33  38  8
34  36  8
35  39  8
36  40  8
37  41  8
38  42  8
39  40  8
18  4  6
41  43  8
42  43  8
19  5  5
25  6  5
20  7  6
21  8  6
23  9  6

> <PUBCHEM_BOND_DEF_STEREO_COUNT>
0

> <PUBCHEM_BOND_UDEF_STEREO_COUNT>
0

> <PUBCHEM_CACTVS_COMPLEXITY>
1020

> <PUBCHEM_CACTVS_HBOND_ACCEPTOR>
16

> <PUBCHEM_CACTVS_HBOND_DONOR>
10

> <PUBCHEM_CACTVS_ROTATABLE_BOND>
6

> <PUBCHEM_CACTVS_SUBSKEYS>
AAADceB4PgAAAAAAAAAAAAAAAAAAAAAAAAA0aIECAAAAAACBQAAAGgAACAAADBSwmAMyDoAABgCIAqBSAAICCAAkIAAIiAFGiMgdNzaGNR6ieWGl4BUPuQfI7LzOIAABCAAIQABAAAIQABCAAAAAAAAAAA==

> <PUBCHEM_CACTVS_TAUTO_COUNT>
162

> <PUBCHEM_CACTVS_TPSA>
266

> <PUBCHEM_COMPONENT_COUNT>
1

> <PUBCHEM_COMPOUND_CANONICALIZED>
1

> <PUBCHEM_COMPOUND_CID>
5280805

> <PUBCHEM_COORDINATE_TYPE>
1
5
255

> <PUBCHEM_EXACT_MASS>
610.15338487

> <PUBCHEM_HEAVY_ATOM_COUNT>
43

> <PUBCHEM_ISOTOPIC_ATOM_COUNT>
0

> <PUBCHEM_IUPAC_CAS_NAME>
2-(3,4-dihydroxyphenyl)-5,7-dihydroxy-3-[[(2S,3R,4S,5S,6R)-3,4,5-trihydroxy-6-[[(2R,3R,4R,5R,6S)-3,4,5-trihydroxy-6-methyl-2-oxanyl]oxymethyl]-2-oxanyl]oxy]-1-benzopyran-4-one

> <PUBCHEM_IUPAC_INCHI>
InChI=1S/C27H30O16/c1-8-17(32)20(35)22(37)26(40-8)39-7-15-18(33)21(36)23(38)27(42-15)43-25-19(34)16-13(31)5-10(28)6-14(16)41-24(25)9-2-3-11(29)12(30)4-9/h2-6,8,15,17-18,20-23,26-33,35-38H,7H2,1H3/t8-,
15+,17-,18+,20+,21-,22+,23+,26+,27-/m0/s1

> <PUBCHEM_IUPAC_INCHIKEY>
IKGXIBQEEMLURG-NVPNHPEKSA-N

> <PUBCHEM_IUPAC_NAME>
2-(3,4-dihydroxyphenyl)-5,7-dihydroxy-3-[(2S,3R,4S,5S,6R)-3,4,5-trihydroxy-6-[[(2R,3R,4R,5R,6S)-3,4,5-trihydroxy-6-methyloxan-2-yl]oxymethyl]oxan-2-yl]oxychromen-4-one

> <PUBCHEM_IUPAC_NAME_MARKUP>
2-(3,4-dihydroxyphenyl)-5,7-dihydroxy-3-[(2<I>S</I>,3<I>R</I>,4<I>S</I>,5<I>S</I>,6<I>R</I>)-3,4,5-trihydroxy-6-[[(2<I>R</I>,3<I>R</I>,4<I>R</I>,5<I>R</I>,6<I>S</I>)-3,4,5-trihydroxy-6-methyloxan-2-yl
]oxymethyl]oxan-2-yl]oxychromen-4-one

> <PUBCHEM_IUPAC_OPENEYE_NAME>
2-(3,4-dihydroxyphenyl)-5,7-dihydroxy-3-[(2S,3R,4S,5S,6R)-3,4,5-trihydroxy-6-[[(2R,3R,4R,5R,6S)-3,4,5-trihydroxy-6-methyl-tetrahydropyran-2-yl]oxymethyl]tetrahydropyran-2-yl]oxy-chromen-4-one

> <PUBCHEM_IUPAC_SYSTEMATIC_NAME>
2-[3,4-bis(oxidanyl)phenyl]-3-[(2S,3R,4S,5S,6R)-6-[[(2R,3R,4R,5R,6S)-6-methyl-3,4,5-tris(oxidanyl)oxan-2-yl]oxymethyl]-3,4,5-tris(oxidanyl)oxan-2-yl]oxy-5,7-bis(oxidanyl)chromen-4-one

> <PUBCHEM_IUPAC_TRADITIONAL_NAME>
2-(3,4-dihydroxyphenyl)-5,7-dihydroxy-3-[(2S,3R,4S,5S,6R)-3,4,5-trihydroxy-6-[[(2R,3R,4R,5R,6S)-3,4,5-trihydroxy-6-methyl-tetrahydropyran-2-yl]oxymethyl]tetrahydropyran-2-yl]oxy-chromone

> <PUBCHEM_MOLECULAR_FORMULA>
C27H30O16

> <PUBCHEM_MOLECULAR_WEIGHT>
610.5

> <PUBCHEM_MONOISOTOPIC_WEIGHT>
610.15338487

> <PUBCHEM_OPENEYE_CAN_SMILES>
CC1C(C(C(C(O1)OCC2C(C(C(C(O2)OC3=C(OC4=CC(=CC(=C4C3=O)O)O)C5=CC(=C(C=C5)O)O)O)O)O)O)O)O

> <PUBCHEM_OPENEYE_ISO_SMILES>
C[C@H]1[C@@H]([C@H]([C@H]([C@@H](O1)OC[C@@H]2[C@H]([C@@H]([C@H]([C@@H](O2)OC3=C(OC4=CC(=CC(=C4C3=O)O)O)C5=CC(=C(C=C5)O)O)O)O)O)O)O)O

> <PUBCHEM_TOTAL_CHARGE>
0

> <PUBCHEM_XLOGP3_AA>
-1.3

> <RelativeEnergy>
0

> <StereoisomerIndex>
1

> <TautomerIndex>
1

> <LibDock Warning>
no hit found

> <ErrorText>
LibDock failed

$$$$
5280805
  SciTegic09112317153D

 73 77  0  0  0  0            999 V2000
   -1.1600   -0.8970   -1.2100 O   0  0  0  1  0  0
   -0.1080   -0.7200    1.3940 O   0  0  0  1  0  0
    0.1560   -1.4250    3.5830 O   0  0  0  1  0  0
   -3.7780   -2.6040    0.6710 O   0  0  0  1  0  0
   -4.7060   -2.8520   -2.0770 O   0  0  0  1  0  0
   -1.0330    0.0550   -3.3160 O   0  0  0  1  0  0
   -3.7730   -0.6520   -3.7500 O   0  0  0  1  0  0
    2.9010   -0.0500    1.7330 O   0  0  0  1  0  0
    3.5490    0.8190    4.2620 O   0  0  0  1  0  0
    2.7530   -1.2570    6.0680 O   0  0  0  1  0  0
    1.4390    2.1950   -1.7960 O   0  0  0  1  0  0
    1.2110   -1.5450   -3.6300 O   0  0  0  1  0  0
    3.8250   -1.7640   -3.1990 O   0  0  0  1  0  0
    6.1130    1.6990   -1.1130 O   0  0  0  1  0  0
   -2.5930    4.6000    0.4140 O   0  0  0  1  0  0
   -4.3410    4.8830   -1.6730 O   0  0  0  1  0  0
   -1.9140   -1.2650   -0.0630 C   0  0  1  1  0  0
   -2.9780   -2.3150   -0.4610 C   0  0  2  1  0  0
   -3.8680   -1.8050   -1.6160 C   0  0  1  1  0  0
   -2.9780   -1.2990   -2.7710 C   0  0  2  1  0  0
    1.8200    0.0960    2.6430 C   0  0  1  1  0  0
    0.8350   -1.0860    2.3820 C   0  0  2  1  0  0
    2.3050    0.1480    4.1220 C   0  0  1  1  0  0
    2.3530   -1.2800    4.7090 C   0  0  2  1  0  0
   -1.9150   -0.3020   -2.2600 C   0  0  1  1  0  0
   -0.9200   -1.7940    0.9760 C   0  0  0  1  0  0
    0.9750   -1.9960    4.6050 C   0  0  2  1  0  0
    1.1120   -3.4960    4.3240 C   0  0  0  1  0  0
    0.1430    0.4960   -2.8680 C   0  0  0  1  0  0
    0.2690    1.7050   -2.2670 C   0  0  0  1  0  0
    1.3310   -0.3580   -3.0390 C   0  0  0  1  0  0
    2.5130    0.0970   -2.5820 C   0  0  0  1  0  0
   -0.9560    2.5490   -2.1080 C   0  0  0  1  0  0
    2.5470    1.4350   -1.9410 C   0  0  0  1  0  0
    3.7800   -0.6660   -2.6930 C   0  0  0  1  0  0
    3.7190    1.9170   -1.4780 C   0  0  0  1  0  0
   -1.2110    3.2000   -0.8870 C   0  0  0  1  0  0
   -1.8550    2.6960   -3.1790 C   0  0  0  1  0  0
    5.0110   -0.0520   -2.1610 C   0  0  0  1  0  0
    4.9900    1.1680   -1.5870 C   0  0  0  1  0  0
   -2.3620    3.9940   -0.7350 C   0  0  0  1  0  0
   -3.0030    3.4910   -3.0280 C   0  0  0  1  0  0
   -3.2610    4.1390   -1.8090 C   0  0  0  1  0  0
   -2.3920   -0.3630    0.3230 H   0  0  0  1  0  0
   -2.4790   -3.2410   -0.7530 H   0  0  0  1  0  0
   -4.5090   -0.9960   -1.2600 H   0  0  0  1  0  0
   -2.4760   -2.1380   -3.2580 H   0  0  0  1  0  0
    1.3540    1.0550    2.4130 H   0  0  0  1  0  0
    1.3450   -1.9870    2.0300 H   0  0  0  1  0  0
    1.5850    0.7310    4.6970 H   0  0  0  1  0  0
    3.1060   -1.8540    4.1660 H   0  0  0  1  0  0
   -2.3720    0.6120   -1.8790 H   0  0  0  1  0  0
   -1.4430   -2.1830    1.8480 H   0  0  0  1  0  0
   -0.2750   -2.5550    0.5360 H   0  0  0  1  0  0
    0.3960   -1.8690    5.5210 H   0  0  0  1  0  0
    0.1320   -3.9600    4.2190 H   0  0  0  1  0  0
    1.6870   -3.6690    3.4150 H   0  0  0  1  0  0
    1.6300   -3.9960    5.1440 H   0  0  0  1  0  0
    3.7350    2.8910   -1.0100 H   0  0  0  1  0  0
   -0.5260    3.0900   -0.0590 H   0  0  0  1  0  0
   -1.6670    2.2010   -4.1230 H   0  0  0  1  0  0
    5.9450   -0.5910   -2.2350 H   0  0  0  1  0  0
   -3.6930    3.6020   -3.8550 H   0  0  0  1  0  0
   -3.3000   -3.2610    1.2000 H   0  0  0  1  0  0
   -5.4500   -2.4450   -2.5480 H   0  0  0  1  0  0
   -4.1860   -1.3460   -4.2860 H   0  0  0  1  0  0
    2.5510    0.1190    0.8440 H   0  0  0  1  0  0
    3.4180    1.7320    3.9650 H   0  0  0  1  0  0
    2.9070   -2.1770    6.3360 H   0  0  0  1  0  0
    6.9400    1.2040   -1.1870 H   0  0  0  1  0  0
   -3.2290    5.3250    0.4430 H   0  0  0  1  0  0
   -4.6440    5.1200   -0.7880 H   0  0  0  1  0  0
    0.3440   -1.8330   -3.9420 H   0  0  0  1  0  0
  1 17  1  0
  1 25  1  0
  2 22  1  0
  2 26  1  0
  3 22  1  0
  3 27  1  0
  4 18  1  0
  4 64  1  0
  5 19  1  0
  5 65  1  0
  6 25  1  0
  6 29  1  0
  7 20  1  0
  7 66  1  0
  8 21  1  0
  8 67  1  0
  9 23  1  0
  9 68  1  0
 10 24  1  0
 10 69  1  0
 11 30  1  0
 11 34  1  0
 12 31  1  0
 12 73  1  0
 13 35  2  0
 14 40  1  0
 14 70  1  0
 15 41  1  0
 15 71  1  0
 16 43  1  0
 16 72  1  0
 17 18  1  0
 17 26  1  0
 17 44  1  0
 18 19  1  0
 18 45  1  0
 19 20  1  0
 19 46  1  0
 20 25  1  0
 20 47  1  0
 21 22  1  0
 21 23  1  0
 21 48  1  0
 22 49  1  0
 23 24  1  0
 23 50  1  0
 24 27  1  0
 24 51  1  0
 25 52  1  0
 26 53  1  0
 26 54  1  0
 27 28  1  0
 27 55  1  0
 28 56  1  0
 28 57  1  0
 28 58  1  0
 29 30  2  0
 29 31  1  0
 30 33  1  0
 31 32  2  0
 32 34  1  0
 32 35  1  0
 33 37  2  0
 33 38  1  0
 34 36  2  0
 35 39  1  0
 36 40  1  0
 36 59  1  0
 37 41  1  0
 37 60  1  0
 38 42  2  0
 38 61  1  0
 39 40  2  0
 39 62  1  0
 41 43  2  0
 42 43  1  0
 42 63  1  0
M  END
> <Name>
5280805

> <AbsoluteEnergy>
54.4502

> <ConfNumber>
1

> <Ionization pH>
7.5

> <IonizationIndex>
1

> <NumberOfIonizations>
1

> <NumberOfStereoisomers>
1

> <NumberOfTautomers>
4

> <OBJECTID>
9223375481421889549

> <PUBCHEM_ATOM_DEF_STEREO_COUNT>
10

> <PUBCHEM_ATOM_UDEF_STEREO_COUNT>
0

> <PUBCHEM_BONDANNOTATIONS>
24  10  5
11  30  8
11  34  8
17  26  5
22  2  5
27  28  6
29  30  8
29  31  8
31  32  8
32  34  8
32  35  8
33  37  8
33  38  8
34  36  8
35  39  8
36  40  8
37  41  8
38  42  8
39  40  8
18  4  6
41  43  8
42  43  8
19  5  5
25  6  5
20  7  6
21  8  6
23  9  6

> <PUBCHEM_BOND_DEF_STEREO_COUNT>
0

> <PUBCHEM_BOND_UDEF_STEREO_COUNT>
0

> <PUBCHEM_CACTVS_COMPLEXITY>
1020

> <PUBCHEM_CACTVS_HBOND_ACCEPTOR>
16

> <PUBCHEM_CACTVS_HBOND_DONOR>
10

> <PUBCHEM_CACTVS_ROTATABLE_BOND>
6

> <PUBCHEM_CACTVS_SUBSKEYS>
AAADceB4PgAAAAAAAAAAAAAAAAAAAAAAAAA0aIECAAAAAACBQAAAGgAACAAADBSwmAMyDoAABgCIAqBSAAICCAAkIAAIiAFGiMgdNzaGNR6ieWGl4BUPuQfI7LzOIAABCAAIQABAAAIQABCAAAAAAAAAAA==

> <PUBCHEM_CACTVS_TAUTO_COUNT>
162

> <PUBCHEM_CACTVS_TPSA>
266

> <PUBCHEM_COMPONENT_COUNT>
1

> <PUBCHEM_COMPOUND_CANONICALIZED>
1

> <PUBCHEM_COMPOUND_CID>
5280805

> <PUBCHEM_COORDINATE_TYPE>
1
5
255

> <PUBCHEM_EXACT_MASS>
610.15338487

> <PUBCHEM_HEAVY_ATOM_COUNT>
43

> <PUBCHEM_ISOTOPIC_ATOM_COUNT>
0

> <PUBCHEM_IUPAC_CAS_NAME>
2-(3,4-dihydroxyphenyl)-5,7-dihydroxy-3-[[(2S,3R,4S,5S,6R)-3,4,5-trihydroxy-6-[[(2R,3R,4R,5R,6S)-3,4,5-trihydroxy-6-methyl-2-oxanyl]oxymethyl]-2-oxanyl]oxy]-1-benzopyran-4-one

> <PUBCHEM_IUPAC_INCHI>
InChI=1S/C27H30O16/c1-8-17(32)20(35)22(37)26(40-8)39-7-15-18(33)21(36)23(38)27(42-15)43-25-19(34)16-13(31)5-10(28)6-14(16)41-24(25)9-2-3-11(29)12(30)4-9/h2-6,8,15,17-18,20-23,26-33,35-38H,7H2,1H3/t8-,
15+,17-,18+,20+,21-,22+,23+,26+,27-/m0/s1

> <PUBCHEM_IUPAC_INCHIKEY>
IKGXIBQEEMLURG-NVPNHPEKSA-N

> <PUBCHEM_IUPAC_NAME>
2-(3,4-dihydroxyphenyl)-5,7-dihydroxy-3-[(2S,3R,4S,5S,6R)-3,4,5-trihydroxy-6-[[(2R,3R,4R,5R,6S)-3,4,5-trihydroxy-6-methyloxan-2-yl]oxymethyl]oxan-2-yl]oxychromen-4-one

> <PUBCHEM_IUPAC_NAME_MARKUP>
2-(3,4-dihydroxyphenyl)-5,7-dihydroxy-3-[(2<I>S</I>,3<I>R</I>,4<I>S</I>,5<I>S</I>,6<I>R</I>)-3,4,5-trihydroxy-6-[[(2<I>R</I>,3<I>R</I>,4<I>R</I>,5<I>R</I>,6<I>S</I>)-3,4,5-trihydroxy-6-methyloxan-2-yl
]oxymethyl]oxan-2-yl]oxychromen-4-one

> <PUBCHEM_IUPAC_OPENEYE_NAME>
2-(3,4-dihydroxyphenyl)-5,7-dihydroxy-3-[(2S,3R,4S,5S,6R)-3,4,5-trihydroxy-6-[[(2R,3R,4R,5R,6S)-3,4,5-trihydroxy-6-methyl-tetrahydropyran-2-yl]oxymethyl]tetrahydropyran-2-yl]oxy-chromen-4-one

> <PUBCHEM_IUPAC_SYSTEMATIC_NAME>
2-[3,4-bis(oxidanyl)phenyl]-3-[(2S,3R,4S,5S,6R)-6-[[(2R,3R,4R,5R,6S)-6-methyl-3,4,5-tris(oxidanyl)oxan-2-yl]oxymethyl]-3,4,5-tris(oxidanyl)oxan-2-yl]oxy-5,7-bis(oxidanyl)chromen-4-one

> <PUBCHEM_IUPAC_TRADITIONAL_NAME>
2-(3,4-dihydroxyphenyl)-5,7-dihydroxy-3-[(2S,3R,4S,5S,6R)-3,4,5-trihydroxy-6-[[(2R,3R,4R,5R,6S)-3,4,5-trihydroxy-6-methyl-tetrahydropyran-2-yl]oxymethyl]tetrahydropyran-2-yl]oxy-chromone

> <PUBCHEM_MOLECULAR_FORMULA>
C27H30O16

> <PUBCHEM_MOLECULAR_WEIGHT>
610.5

> <PUBCHEM_MONOISOTOPIC_WEIGHT>
610.15338487

> <PUBCHEM_OPENEYE_CAN_SMILES>
CC1C(C(C(C(O1)OCC2C(C(C(C(O2)OC3=C(OC4=CC(=CC(=C4C3=O)O)O)C5=CC(=C(C=C5)O)O)O)O)O)O)O)O

> <PUBCHEM_OPENEYE_ISO_SMILES>
C[C@H]1[C@@H]([C@H]([C@H]([C@@H](O1)OC[C@@H]2[C@H]([C@@H]([C@H]([C@@H](O2)OC3=C(OC4=CC(=CC(=C4C3=O)O)O)C5=CC(=C(C=C5)O)O)O)O)O)O)O)O

> <PUBCHEM_TOTAL_CHARGE>
0

> <PUBCHEM_XLOGP3_AA>
-1.3

> <RelativeEnergy>
0

> <StereoisomerIndex>
1

> <TautomerIndex>
2

> <LibDock Warning>
no hit found

> <ErrorText>
LibDock failed

$$$$
5280805
  SciTegic09112317153D

 73 77  0  0  0  0            999 V2000
   -0.3350   -1.1070    0.0840 O   0  0  0  1  0  0
    2.4750   -0.8970    0.1300 O   0  0  0  1  0  0
    4.5850   -1.4430    0.9110 O   0  0  0  1  0  0
    0.3660   -2.3960    3.4230 O   0  0  0  1  0  0
   -2.5220   -2.6970    3.2200 O   0  0  0  1  0  0
   -2.2240   -0.3000   -0.9810 O   0  0  0  1  0  0
   -3.7030   -0.7160    1.4320 O   0  0  0  1  0  0
    4.0440   -0.5760   -2.5230 O   0  0  0  1  0  0
    6.5880    0.4180   -2.1760 O   0  0  0  1  0  0
    7.9330   -1.3860   -0.4030 O   0  0  0  1  0  0
   -3.9310    2.8660   -0.7460 O   0  0  0  1  0  0
   -4.8420   -1.1850   -1.1400 O   0  0  0  1  0  0
   -7.4140   -0.6200   -1.1480 O   0  0  0  1  0  0
   -8.4650    3.8910   -0.8070 O   0  0  0  1  0  0
    1.6750    1.6910   -2.2820 O   0  0  0  1  0  0
    2.3930    3.6250   -0.4840 O   0  0  0  1  0  0
    0.4230   -1.3200    1.2700 C   0  0  1  1  0  0
   -0.3560   -2.2640    2.2140 C   0  0  2  1  0  0
   -1.7730   -1.7250    2.5050 C   0  0  1  1  0  0
   -2.4840   -1.3920    1.1750 C   0  0  2  1  0  0
    4.4050   -0.2230   -1.1950 C   0  0  1  1  0  0
    3.7780   -1.2930   -0.2490 C   0  0  2  1  0  0
    5.9470   -0.1070   -1.0210 C   0  0  1  1  0  0
    6.5330   -1.4740   -0.6090 C   0  0  2  1  0  0
   -1.6020   -0.4930    0.2830 C   0  0  1  1  0  0
    1.7760   -1.8960    0.8370 C   0  0  0  1  0  0
    5.8700   -2.0220    0.6890 C   0  0  2  1  0  0
    5.7120   -3.5470    0.6680 C   0  0  0  1  0  0
   -3.2110    0.5950   -0.9280 C   0  0  0  1  0  0
   -2.9640    1.9210   -0.8020 C   0  0  0  1  0  0
   -4.6010    0.1190   -1.0140 C   0  0  0  1  0  0
   -5.5960    1.0280   -0.9590 C   0  0  0  1  0  0
   -1.5410    2.3750   -0.7180 C   0  0  0  1  0  0
   -5.2160    2.4600   -0.8220 C   0  0  0  1  0  0
   -7.0350    0.6530   -1.0310 C   0  0  0  1  0  0
   -6.1830    3.3980   -0.7720 C   0  0  0  1  0  0
   -0.5690    1.8060   -1.5620 C   0  0  0  1  0  0
   -1.1680    3.3670    0.2050 C   0  0  0  1  0  0
   -7.9770    1.6160   -0.9780 C   0  0  0  1  0  0
   -7.6100    3.0370   -0.8490 C   0  0  0  1  0  0
    0.7700    2.2280   -1.4870 C   0  0  0  1  0  0
    0.1680    3.7890    0.2820 C   0  0  0  1  0  0
    1.1400    3.2240   -0.5620 C   0  0  0  1  0  0
    0.5790   -0.3480    1.7400 H   0  0  0  1  0  0
   -0.4180   -3.2570    1.7620 H   0  0  0  1  0  0
   -1.7100   -0.8300    3.1270 H   0  0  0  1  0  0
   -2.7250   -2.3100    0.6350 H   0  0  0  1  0  0
    3.9730    0.7650   -1.0150 H   0  0  0  1  0  0
    3.6980   -2.2730   -0.7200 H   0  0  0  1  0  0
    6.1480    0.6070   -0.2210 H   0  0  0  1  0  0
    6.3780   -2.1800   -1.4270 H   0  0  0  1  0  0
   -1.4420    0.4890    0.7340 H   0  0  0  1  0  0
    2.3720   -2.1760    1.7070 H   0  0  0  1  0  0
    1.6370   -2.7500    0.1730 H   0  0  0  1  0  0
    6.4490   -1.7500    1.5730 H   0  0  0  1  0  0
    5.2060   -3.8940    1.5700 H   0  0  0  1  0  0
    5.1420   -3.8630   -0.2030 H   0  0  0  1  0  0
    6.6850   -4.0330    0.6240 H   0  0  0  1  0  0
   -5.9090    4.4380   -0.6710 H   0  0  0  1  0  0
   -0.8490    1.0430   -2.2740 H   0  0  0  1  0  0
   -1.9070    3.8090    0.8590 H   0  0  0  1  0  0
   -9.0220    1.3430   -1.0310 H   0  0  0  1  0  0
    0.4500    4.5540    0.9930 H   0  0  0  1  0  0
    1.1020   -3.0030    3.2540 H   0  0  0  1  0  0
   -3.3350   -2.2650    3.5210 H   0  0  0  1  0  0
   -4.4160   -1.3760    1.3950 H   0  0  0  1  0  0
    3.0760   -0.5520   -2.5720 H   0  0  0  1  0  0
    6.2090    1.2940   -2.3420 H   0  0  0  1  0  0
    8.2530   -2.2840   -0.2250 H   0  0  0  1  0  0
   -8.3550   -0.8290   -1.1930 H   0  0  0  1  0  0
    2.5760    2.0380   -2.2740 H   0  0  0  1  0  0
    3.0530    3.2320   -1.0700 H   0  0  0  1  0  0
   -4.0990   -1.7980   -1.2120 H   0  0  0  1  0  0
  1 17  1  0
  1 25  1  0
  2 22  1  0
  2 26  1  0
  3 22  1  0
  3 27  1  0
  4 18  1  0
  4 64  1  0
  5 19  1  0
  5 65  1  0
  6 25  1  0
  6 29  1  0
  7 20  1  0
  7 66  1  0
  8 21  1  0
  8 67  1  0
  9 23  1  0
  9 68  1  0
 10 24  1  0
 10 69  1  0
 11 30  1  0
 11 34  1  0
 12 31  1  0
 12 73  1  0
 13 35  1  0
 13 70  1  0
 14 40  2  0
 15 41  1  0
 15 71  1  0
 16 43  1  0
 16 72  1  0
 17 18  1  0
 17 26  1  0
 17 44  1  0
 18 19  1  0
 18 45  1  0
 19 20  1  0
 19 46  1  0
 20 25  1  0
 20 47  1  0
 21 22  1  0
 21 23  1  0
 21 48  1  0
 22 49  1  0
 23 24  1  0
 23 50  1  0
 24 27  1  0
 24 51  1  0
 25 52  1  0
 26 53  1  0
 26 54  1  0
 27 28  1  0
 27 55  1  0
 28 56  1  0
 28 57  1  0
 28 58  1  0
 29 30  2  0
 29 31  1  0
 30 33  1  0
 31 32  2  0
 32 34  1  0
 32 35  1  0
 33 37  2  0
 33 38  1  0
 34 36  2  0
 35 39  2  0
 36 40  1  0
 36 59  1  0
 37 41  1  0
 37 60  1  0
 38 42  2  0
 38 61  1  0
 39 40  1  0
 39 62  1  0
 41 43  2  0
 42 43  1  0
 42 63  1  0
M  END
> <Name>
5280805

> <AbsoluteEnergy>
58.4358

> <ConfNumber>
1

> <Ionization pH>
7.5

> <IonizationIndex>
1

> <NumberOfIonizations>
1

> <NumberOfStereoisomers>
1

> <NumberOfTautomers>
4

> <OBJECTID>
9223375485716856845

> <PUBCHEM_ATOM_DEF_STEREO_COUNT>
10

> <PUBCHEM_ATOM_UDEF_STEREO_COUNT>
0

> <PUBCHEM_BONDANNOTATIONS>
24  10  5
11  30  8
11  34  8
17  26  5
22  2  5
27  28  6
29  30  8
29  31  8
31  32  8
32  34  8
32  35  8
33  37  8
33  38  8
34  36  8
35  39  8
36  40  8
37  41  8
38  42  8
39  40  8
18  4  6
41  43  8
42  43  8
19  5  5
25  6  5
20  7  6
21  8  6
23  9  6

> <PUBCHEM_BOND_DEF_STEREO_COUNT>
0

> <PUBCHEM_BOND_UDEF_STEREO_COUNT>
0

> <PUBCHEM_CACTVS_COMPLEXITY>
1020

> <PUBCHEM_CACTVS_HBOND_ACCEPTOR>
16

> <PUBCHEM_CACTVS_HBOND_DONOR>
10

> <PUBCHEM_CACTVS_ROTATABLE_BOND>
6

> <PUBCHEM_CACTVS_SUBSKEYS>
AAADceB4PgAAAAAAAAAAAAAAAAAAAAAAAAA0aIECAAAAAACBQAAAGgAACAAADBSwmAMyDoAABgCIAqBSAAICCAAkIAAIiAFGiMgdNzaGNR6ieWGl4BUPuQfI7LzOIAABCAAIQABAAAIQABCAAAAAAAAAAA==

> <PUBCHEM_CACTVS_TAUTO_COUNT>
162

> <PUBCHEM_CACTVS_TPSA>
266

> <PUBCHEM_COMPONENT_COUNT>
1

> <PUBCHEM_COMPOUND_CANONICALIZED>
1

> <PUBCHEM_COMPOUND_CID>
5280805

> <PUBCHEM_COORDINATE_TYPE>
1
5
255

> <PUBCHEM_EXACT_MASS>
610.15338487

> <PUBCHEM_HEAVY_ATOM_COUNT>
43

> <PUBCHEM_ISOTOPIC_ATOM_COUNT>
0

> <PUBCHEM_IUPAC_CAS_NAME>
2-(3,4-dihydroxyphenyl)-5,7-dihydroxy-3-[[(2S,3R,4S,5S,6R)-3,4,5-trihydroxy-6-[[(2R,3R,4R,5R,6S)-3,4,5-trihydroxy-6-methyl-2-oxanyl]oxymethyl]-2-oxanyl]oxy]-1-benzopyran-4-one

> <PUBCHEM_IUPAC_INCHI>
InChI=1S/C27H30O16/c1-8-17(32)20(35)22(37)26(40-8)39-7-15-18(33)21(36)23(38)27(42-15)43-25-19(34)16-13(31)5-10(28)6-14(16)41-24(25)9-2-3-11(29)12(30)4-9/h2-6,8,15,17-18,20-23,26-33,35-38H,7H2,1H3/t8-,
15+,17-,18+,20+,21-,22+,23+,26+,27-/m0/s1

> <PUBCHEM_IUPAC_INCHIKEY>
IKGXIBQEEMLURG-NVPNHPEKSA-N

> <PUBCHEM_IUPAC_NAME>
2-(3,4-dihydroxyphenyl)-5,7-dihydroxy-3-[(2S,3R,4S,5S,6R)-3,4,5-trihydroxy-6-[[(2R,3R,4R,5R,6S)-3,4,5-trihydroxy-6-methyloxan-2-yl]oxymethyl]oxan-2-yl]oxychromen-4-one

> <PUBCHEM_IUPAC_NAME_MARKUP>
2-(3,4-dihydroxyphenyl)-5,7-dihydroxy-3-[(2<I>S</I>,3<I>R</I>,4<I>S</I>,5<I>S</I>,6<I>R</I>)-3,4,5-trihydroxy-6-[[(2<I>R</I>,3<I>R</I>,4<I>R</I>,5<I>R</I>,6<I>S</I>)-3,4,5-trihydroxy-6-methyloxan-2-yl
]oxymethyl]oxan-2-yl]oxychromen-4-one

> <PUBCHEM_IUPAC_OPENEYE_NAME>
2-(3,4-dihydroxyphenyl)-5,7-dihydroxy-3-[(2S,3R,4S,5S,6R)-3,4,5-trihydroxy-6-[[(2R,3R,4R,5R,6S)-3,4,5-trihydroxy-6-methyl-tetrahydropyran-2-yl]oxymethyl]tetrahydropyran-2-yl]oxy-chromen-4-one

> <PUBCHEM_IUPAC_SYSTEMATIC_NAME>
2-[3,4-bis(oxidanyl)phenyl]-3-[(2S,3R,4S,5S,6R)-6-[[(2R,3R,4R,5R,6S)-6-methyl-3,4,5-tris(oxidanyl)oxan-2-yl]oxymethyl]-3,4,5-tris(oxidanyl)oxan-2-yl]oxy-5,7-bis(oxidanyl)chromen-4-one

> <PUBCHEM_IUPAC_TRADITIONAL_NAME>
2-(3,4-dihydroxyphenyl)-5,7-dihydroxy-3-[(2S,3R,4S,5S,6R)-3,4,5-trihydroxy-6-[[(2R,3R,4R,5R,6S)-3,4,5-trihydroxy-6-methyl-tetrahydropyran-2-yl]oxymethyl]tetrahydropyran-2-yl]oxy-chromone

> <PUBCHEM_MOLECULAR_FORMULA>
C27H30O16

> <PUBCHEM_MOLECULAR_WEIGHT>
610.5

> <PUBCHEM_MONOISOTOPIC_WEIGHT>
610.15338487

> <PUBCHEM_OPENEYE_CAN_SMILES>
CC1C(C(C(C(O1)OCC2C(C(C(C(O2)OC3=C(OC4=CC(=CC(=C4C3=O)O)O)C5=CC(=C(C=C5)O)O)O)O)O)O)O)O

> <PUBCHEM_OPENEYE_ISO_SMILES>
C[C@H]1[C@@H]([C@H]([C@H]([C@@H](O1)OC[C@@H]2[C@H]([C@@H]([C@H]([C@@H](O2)OC3=C(OC4=CC(=CC(=C4C3=O)O)O)C5=CC(=C(C=C5)O)O)O)O)O)O)O)O

> <PUBCHEM_TOTAL_CHARGE>
0

> <PUBCHEM_XLOGP3_AA>
-1.3

> <RelativeEnergy>
0

> <StereoisomerIndex>
1

> <TautomerIndex>
3

> <LibDock Warning>
no hit found

> <ErrorText>
LibDock failed

$$$$
5280863
  SciTegic09112317153D

 30 32  0  0  0  0            999 V2000
    0.5140    0.5160   -0.0290 O   0  0  0  1  0  0
   -1.6290   -2.2440   -0.0020 O   0  5  0  1  0  0
    3.4020   -3.3200   -0.0350 O   0  0  0  1  0  0
    0.6780   -3.5000   -0.0190 O   0  0  0  1  0  0
    5.2600    1.0680   -0.0780 O   0  0  0  1  0  0
   -5.5670    2.4780    0.0390 O   0  0  0  1  0  0
    1.9220   -1.4280   -0.0350 C   0  0  0  1  0  0
    1.7520   -0.0200   -0.0410 C   0  0  0  1  0  0
   -0.6210   -0.2150   -0.0160 C   0  0  0  1  0  0
    0.7090   -2.2890   -0.0230 C   0  0  0  1  0  0
   -0.5920   -1.5740   -0.0140 C   0  0  0  1  0  0
   -1.9360    0.5020    0.0000 C   0  0  0  1  0  0
    3.2250   -1.9900   -0.0410 C   0  0  0  1  0  0
    2.8870    0.8240   -0.0570 C   0  0  0  1  0  0
    4.1860    0.2660   -0.0620 C   0  0  0  1  0  0
    4.3540   -1.1390   -0.0550 C   0  0  0  1  0  0
   -2.1110    1.6680   -0.7640 C   0  0  0  1  0  0
   -2.9980    0.0080    0.7770 C   0  0  0  1  0  0
   -3.3460    2.3400   -0.7500 C   0  0  0  1  0  0
   -4.2330    0.6820    0.7890 C   0  0  0  1  0  0
   -4.4100    1.8500    0.0270 C   0  0  0  1  0  0
    2.7600    1.8980   -0.0620 H   0  0  0  1  0  0
    5.3480   -1.5630   -0.0590 H   0  0  0  1  0  0
   -1.3010    2.0570   -1.3650 H   0  0  0  1  0  0
   -2.8750   -0.8890    1.3670 H   0  0  0  1  0  0
   -3.4750    3.2360   -1.3380 H   0  0  0  1  0  0
   -5.0450    0.2990    1.3890 H   0  0  0  1  0  0
    4.3010   -3.6780   -0.0390 H   0  0  0  1  0  0
    5.1330    2.0270   -0.0840 H   0  0  0  1  0  0
   -6.2890    2.1310    0.5780 H   0  0  0  1  0  0
  1  8  1  0
  1  9  1  0
  2 11  1  0
  3 13  1  0
  3 28  1  0
  4 10  2  0
  5 15  1  0
  5 29  1  0
  6 21  1  0
  6 30  1  0
  7  8  2  0
  7 10  1  0
  7 13  1  0
  8 14  1  0
  9 11  2  0
  9 12  1  0
 10 11  1  0
 12 17  2  0
 12 18  1  0
 13 16  2  0
 14 15  2  0
 14 22  1  0
 15 16  1  0
 16 23  1  0
 17 19  1  0
 17 24  1  0
 18 20  2  0
 18 25  1  0
 19 21  2  0
 19 26  1  0
 20 21  1  0
 20 27  1  0
M  CHG  1   2  -1
M  END
> <Name>
5280863

> <AbsoluteEnergy>
36.0854

> <ConfNumber>
1

> <Ionization pH>
6.85_DPPP

> <IonizationIndex>
1

> <NumberOfIonizations>
2

> <NumberOfStereoisomers>
1

> <NumberOfTautomers>
4

> <OBJECTID>
9223375494306791437

> <PUBCHEM_ATOM_DEF_STEREO_COUNT>
0

> <PUBCHEM_ATOM_UDEF_STEREO_COUNT>
0

> <PUBCHEM_BONDANNOTATIONS>
1  8  8
1  9  8
10  11  8
12  17  8
12  18  8
13  16  8
14  15  8
15  16  8
17  19  8
18  20  8
19  21  8
20  21  8
7  10  8
7  13  8
7  8  8
8  14  8
9  11  8

> <PUBCHEM_BOND_DEF_STEREO_COUNT>
0

> <PUBCHEM_BOND_UDEF_STEREO_COUNT>
0

> <PUBCHEM_CACTVS_COMPLEXITY>
451

> <PUBCHEM_CACTVS_HBOND_ACCEPTOR>
6

> <PUBCHEM_CACTVS_HBOND_DONOR>
4

> <PUBCHEM_CACTVS_ROTATABLE_BOND>
1

> <PUBCHEM_CACTVS_SUBSKEYS>
AAADccBwOAAAAAAAAAAAAAAAAAAAAAAAAAAwYIAAAAAAAACBQAAAGgAACAAADASAmAAwBoAABgCIAqBSAAICCAAkIAAIiAFGCMgMJzaGNRqCeWCl4BUIuQfI7KzOIAAACAAIAABAAAAQABAAAAAAAAAAAA==

> <PUBCHEM_CACTVS_TAUTO_COUNT>
-1

> <PUBCHEM_CACTVS_TPSA>
107

> <PUBCHEM_COMPONENT_COUNT>
1

> <PUBCHEM_COMPOUND_CANONICALIZED>
1

> <PUBCHEM_COMPOUND_CID>
5280863

> <PUBCHEM_COORDINATE_TYPE>
1
5
255

> <PUBCHEM_EXACT_MASS>
286.04773803

> <PUBCHEM_HEAVY_ATOM_COUNT>
21

> <PUBCHEM_ISOTOPIC_ATOM_COUNT>
0

> <PUBCHEM_IUPAC_CAS_NAME>
3,5,7-trihydroxy-2-(4-hydroxyphenyl)-1-benzopyran-4-one

> <PUBCHEM_IUPAC_INCHI>
InChI=1S/C15H10O6/c16-8-3-1-7(2-4-8)15-14(20)13(19)12-10(18)5-9(17)6-11(12)21-15/h1-6,16-18,20H

> <PUBCHEM_IUPAC_INCHIKEY>
IYRMWMYZSQPJKC-UHFFFAOYSA-N

> <PUBCHEM_IUPAC_NAME>
3,5,7-trihydroxy-2-(4-hydroxyphenyl)chromen-4-one

> <PUBCHEM_IUPAC_NAME_MARKUP>
3,5,7-trihydroxy-2-(4-hydroxyphenyl)chromen-4-one

> <PUBCHEM_IUPAC_OPENEYE_NAME>
3,5,7-trihydroxy-2-(4-hydroxyphenyl)chromen-4-one

> <PUBCHEM_IUPAC_SYSTEMATIC_NAME>
2-(4-hydroxyphenyl)-3,5,7-tris(oxidanyl)chromen-4-one

> <PUBCHEM_IUPAC_TRADITIONAL_NAME>
3,5,7-trihydroxy-2-(4-hydroxyphenyl)chromone

> <PUBCHEM_MOLECULAR_FORMULA>
C15H10O6

> <PUBCHEM_MOLECULAR_WEIGHT>
286.24

> <PUBCHEM_MONOISOTOPIC_WEIGHT>
286.04773803

> <PUBCHEM_OPENEYE_CAN_SMILES>
C1=CC(=CC=C1C2=C(C(=O)C3=C(C=C(C=C3O2)O)O)O)O

> <PUBCHEM_OPENEYE_ISO_SMILES>
C1=CC(=CC=C1C2=C(C(=O)C3=C(C=C(C=C3O2)O)O)O)O

> <PUBCHEM_TOTAL_CHARGE>
0

> <PUBCHEM_XLOGP3>
1.9

> <RelativeEnergy>
0

> <StereoisomerIndex>
1

> <TautomerIndex>
1

> <LibDock Warning>
no hit found

> <ErrorText>
LibDock failed

$$$$
5280863
  SciTegic09112317153D

 30 32  0  0  0  0            999 V2000
    0.7230   -0.5590    0.0100 O   0  0  0  1  0  0
   -1.6620    2.0290    0.0160 O   0  5  0  1  0  0
    3.1370    3.5230    0.9260 O   0  0  0  1  0  0
    0.5120    3.5760    0.5390 O   0  0  0  1  0  0
    5.4260   -0.5100    0.6640 O   0  0  0  1  0  0
   -5.0840   -2.9200   -1.1310 O   0  0  0  1  0  0
    1.8110    1.6290    0.4630 C   0  0  0  1  0  0
    1.8380    0.1580    0.2640 C   0  0  0  1  0  0
   -0.4550    0.1050   -0.0680 C   0  0  0  1  0  0
    0.6230    2.2580    0.3770 C   0  0  0  1  0  0
   -0.5740    1.4470    0.0940 C   0  0  0  1  0  0
   -1.6860   -0.6990   -0.3510 C   0  0  0  1  0  0
    3.0880    2.3280    0.7460 C   0  0  0  1  0  0
    3.0160   -0.4960    0.3360 C   0  0  0  1  0  0
    4.2970    0.1930    0.6100 C   0  0  0  1  0  0
    4.3220    1.5270    0.8030 C   0  0  0  1  0  0
   -1.6430   -1.7500   -1.2830 C   0  0  0  1  0  0
   -2.8890   -0.4040    0.3170 C   0  0  0  1  0  0
   -2.7990   -2.5040   -1.5490 C   0  0  0  1  0  0
   -4.0430   -1.1600    0.0490 C   0  0  0  1  0  0
   -4.0020   -2.2130   -0.8830 C   0  0  0  1  0  0
    3.0290   -1.5660    0.1900 H   0  0  0  1  0  0
    5.2640    2.0180    1.0020 H   0  0  0  1  0  0
   -0.7230   -1.9840   -1.8030 H   0  0  0  1  0  0
   -2.9340    0.4000    1.0350 H   0  0  0  1  0  0
   -2.7600   -3.3110   -2.2650 H   0  0  0  1  0  0
   -4.9650   -0.9320    0.5650 H   0  0  0  1  0  0
    5.3970   -1.4650    0.5260 H   0  0  0  1  0  0
   -5.9040   -2.7090   -0.6680 H   0  0  0  1  0  0
   -0.3590    3.9880    0.4690 H   0  0  0  1  0  0
  1  8  1  0
  1  9  1  0
  2 11  1  0
  3 13  2  0
  4 10  1  0
  4 30  1  0
  5 15  1  0
  5 28  1  0
  6 21  1  0
  6 29  1  0
  7  8  1  0
  7 10  2  0
  7 13  1  0
  8 14  2  0
  9 11  2  0
  9 12  1  0
 10 11  1  0
 12 17  2  0
 12 18  1  0
 13 16  1  0
 14 15  1  0
 14 22  1  0
 15 16  2  0
 16 23  1  0
 17 19  1  0
 17 24  1  0
 18 20  2  0
 18 25  1  0
 19 21  2  0
 19 26  1  0
 20 21  1  0
 20 27  1  0
M  CHG  1   2  -1
M  END
> <Name>
5280863

> <AbsoluteEnergy>
31.2609

> <ConfNumber>
1

> <Ionization pH>
6.85_DPPP

> <IonizationIndex>
1

> <NumberOfIonizations>
2

> <NumberOfStereoisomers>
1

> <NumberOfTautomers>
4

> <OBJECTID>
9223375502896726029

> <PUBCHEM_ATOM_DEF_STEREO_COUNT>
0

> <PUBCHEM_ATOM_UDEF_STEREO_COUNT>
0

> <PUBCHEM_BONDANNOTATIONS>
1  8  8
1  9  8
10  11  8
12  17  8
12  18  8
13  16  8
14  15  8
15  16  8
17  19  8
18  20  8
19  21  8
20  21  8
7  10  8
7  13  8
7  8  8
8  14  8
9  11  8

> <PUBCHEM_BOND_DEF_STEREO_COUNT>
0

> <PUBCHEM_BOND_UDEF_STEREO_COUNT>
0

> <PUBCHEM_CACTVS_COMPLEXITY>
451

> <PUBCHEM_CACTVS_HBOND_ACCEPTOR>
6

> <PUBCHEM_CACTVS_HBOND_DONOR>
4

> <PUBCHEM_CACTVS_ROTATABLE_BOND>
1

> <PUBCHEM_CACTVS_SUBSKEYS>
AAADccBwOAAAAAAAAAAAAAAAAAAAAAAAAAAwYIAAAAAAAACBQAAAGgAACAAADASAmAAwBoAABgCIAqBSAAICCAAkIAAIiAFGCMgMJzaGNRqCeWCl4BUIuQfI7KzOIAAACAAIAABAAAAQABAAAAAAAAAAAA==

> <PUBCHEM_CACTVS_TAUTO_COUNT>
-1

> <PUBCHEM_CACTVS_TPSA>
107

> <PUBCHEM_COMPONENT_COUNT>
1

> <PUBCHEM_COMPOUND_CANONICALIZED>
1

> <PUBCHEM_COMPOUND_CID>
5280863

> <PUBCHEM_COORDINATE_TYPE>
1
5
255

> <PUBCHEM_EXACT_MASS>
286.04773803

> <PUBCHEM_HEAVY_ATOM_COUNT>
21

> <PUBCHEM_ISOTOPIC_ATOM_COUNT>
0

> <PUBCHEM_IUPAC_CAS_NAME>
3,5,7-trihydroxy-2-(4-hydroxyphenyl)-1-benzopyran-4-one

> <PUBCHEM_IUPAC_INCHI>
InChI=1S/C15H10O6/c16-8-3-1-7(2-4-8)15-14(20)13(19)12-10(18)5-9(17)6-11(12)21-15/h1-6,16-18,20H

> <PUBCHEM_IUPAC_INCHIKEY>
IYRMWMYZSQPJKC-UHFFFAOYSA-N

> <PUBCHEM_IUPAC_NAME>
3,5,7-trihydroxy-2-(4-hydroxyphenyl)chromen-4-one

> <PUBCHEM_IUPAC_NAME_MARKUP>
3,5,7-trihydroxy-2-(4-hydroxyphenyl)chromen-4-one

> <PUBCHEM_IUPAC_OPENEYE_NAME>
3,5,7-trihydroxy-2-(4-hydroxyphenyl)chromen-4-one

> <PUBCHEM_IUPAC_SYSTEMATIC_NAME>
2-(4-hydroxyphenyl)-3,5,7-tris(oxidanyl)chromen-4-one

> <PUBCHEM_IUPAC_TRADITIONAL_NAME>
3,5,7-trihydroxy-2-(4-hydroxyphenyl)chromone

> <PUBCHEM_MOLECULAR_FORMULA>
C15H10O6

> <PUBCHEM_MOLECULAR_WEIGHT>
286.24

> <PUBCHEM_MONOISOTOPIC_WEIGHT>
286.04773803

> <PUBCHEM_OPENEYE_CAN_SMILES>
C1=CC(=CC=C1C2=C(C(=O)C3=C(C=C(C=C3O2)O)O)O)O

> <PUBCHEM_OPENEYE_ISO_SMILES>
C1=CC(=CC=C1C2=C(C(=O)C3=C(C=C(C=C3O2)O)O)O)O

> <PUBCHEM_TOTAL_CHARGE>
0

> <PUBCHEM_XLOGP3>
1.9

> <RelativeEnergy>
0

> <StereoisomerIndex>
1

> <TautomerIndex>
3

> <LibDock Warning>
no hit found

> <ErrorText>
LibDock failed

$$$$
5280863
  SciTegic09112317153D

 30 32  0  0  0  0            999 V2000
    0.7440   -0.7930   -0.1150 O   0  0  0  1  0  0
   -1.5100    1.8850    0.2360 O   0  5  0  1  0  0
    3.3570    3.2170    1.1150 O   0  0  0  1  0  0
    0.7460    3.2730    0.8160 O   0  0  0  1  0  0
    5.3610   -0.9060    0.3910 O   0  0  0  1  0  0
   -5.2050   -2.7700   -1.2580 O   0  0  0  1  0  0
    1.9550    1.2910    0.5040 C   0  0  0  1  0  0
    1.9000   -0.1560    0.1660 C   0  0  0  1  0  0
   -0.4020   -0.0740   -0.0840 C   0  0  0  1  0  0
    0.7930    1.9730    0.5250 C   0  0  0  1  0  0
   -0.4510    1.2500    0.2150 C   0  0  0  1  0  0
   -1.6800   -0.7910   -0.3970 C   0  0  0  1  0  0
    3.2680    1.9260    0.8050 C   0  0  0  1  0  0
    3.0430   -0.8710    0.1330 C   0  0  0  1  0  0
    4.3480   -0.2520    0.4280 C   0  0  0  1  0  0
    4.3930    1.1820    0.7660 C   0  0  0  1  0  0
   -1.7170   -1.7460   -1.4280 C   0  0  0  1  0  0
   -2.8440   -0.5100    0.3420 C   0  0  0  1  0  0
   -2.9160   -2.4180   -1.7190 C   0  0  0  1  0  0
   -4.0410   -1.1840    0.0490 C   0  0  0  1  0  0
   -4.0820   -2.1390   -0.9830 C   0  0  0  1  0  0
    3.0040   -1.9220   -0.1130 H   0  0  0  1  0  0
    5.3460    1.6430    0.9840 H   0  0  0  1  0  0
   -0.8280   -1.9690   -2.0000 H   0  0  0  1  0  0
   -2.8240    0.2230    1.1370 H   0  0  0  1  0  0
   -2.9420   -3.1510   -2.5120 H   0  0  0  1  0  0
   -4.9340   -0.9650    0.6170 H   0  0  0  1  0  0
    4.2250    3.5980    1.3090 H   0  0  0  1  0  0
   -5.9980   -2.5680   -0.7440 H   0  0  0  1  0  0
   -0.1070    3.7270    0.8160 H   0  0  0  1  0  0
  1  8  1  0
  1  9  1  0
  2 11  1  0
  3 13  1  0
  3 28  1  0
  4 10  1  0
  4 30  1  0
  5 15  2  0
  6 21  1  0
  6 29  1  0
  7  8  1  0
  7 10  2  0
  7 13  1  0
  8 14  2  0
  9 11  2  0
  9 12  1  0
 10 11  1  0
 12 17  2  0
 12 18  1  0
 13 16  2  0
 14 15  1  0
 14 22  1  0
 15 16  1  0
 16 23  1  0
 17 19  1  0
 17 24  1  0
 18 20  2  0
 18 25  1  0
 19 21  2  0
 19 26  1  0
 20 21  1  0
 20 27  1  0
M  CHG  1   2  -1
M  END
> <Name>
5280863

> <AbsoluteEnergy>
31.517

> <ConfNumber>
1

> <Ionization pH>
6.85_DPPP

> <IonizationIndex>
1

> <NumberOfIonizations>
2

> <NumberOfStereoisomers>
1

> <NumberOfTautomers>
4

> <OBJECTID>
9223375507191693325

> <PUBCHEM_ATOM_DEF_STEREO_COUNT>
0

> <PUBCHEM_ATOM_UDEF_STEREO_COUNT>
0

> <PUBCHEM_BONDANNOTATIONS>
1  8  8
1  9  8
10  11  8
12  17  8
12  18  8
13  16  8
14  15  8
15  16  8
17  19  8
18  20  8
19  21  8
20  21  8
7  10  8
7  13  8
7  8  8
8  14  8
9  11  8

> <PUBCHEM_BOND_DEF_STEREO_COUNT>
0

> <PUBCHEM_BOND_UDEF_STEREO_COUNT>
0

> <PUBCHEM_CACTVS_COMPLEXITY>
451

> <PUBCHEM_CACTVS_HBOND_ACCEPTOR>
6

> <PUBCHEM_CACTVS_HBOND_DONOR>
4

> <PUBCHEM_CACTVS_ROTATABLE_BOND>
1

> <PUBCHEM_CACTVS_SUBSKEYS>
AAADccBwOAAAAAAAAAAAAAAAAAAAAAAAAAAwYIAAAAAAAACBQAAAGgAACAAADASAmAAwBoAABgCIAqBSAAICCAAkIAAIiAFGCMgMJzaGNRqCeWCl4BUIuQfI7KzOIAAACAAIAABAAAAQABAAAAAAAAAAAA==

> <PUBCHEM_CACTVS_TAUTO_COUNT>
-1

> <PUBCHEM_CACTVS_TPSA>
107

> <PUBCHEM_COMPONENT_COUNT>
1

> <PUBCHEM_COMPOUND_CANONICALIZED>
1

> <PUBCHEM_COMPOUND_CID>
5280863

> <PUBCHEM_COORDINATE_TYPE>
1
5
255

> <PUBCHEM_EXACT_MASS>
286.04773803

> <PUBCHEM_HEAVY_ATOM_COUNT>
21

> <PUBCHEM_ISOTOPIC_ATOM_COUNT>
0

> <PUBCHEM_IUPAC_CAS_NAME>
3,5,7-trihydroxy-2-(4-hydroxyphenyl)-1-benzopyran-4-one

> <PUBCHEM_IUPAC_INCHI>
InChI=1S/C15H10O6/c16-8-3-1-7(2-4-8)15-14(20)13(19)12-10(18)5-9(17)6-11(12)21-15/h1-6,16-18,20H

> <PUBCHEM_IUPAC_INCHIKEY>
IYRMWMYZSQPJKC-UHFFFAOYSA-N

> <PUBCHEM_IUPAC_NAME>
3,5,7-trihydroxy-2-(4-hydroxyphenyl)chromen-4-one

> <PUBCHEM_IUPAC_NAME_MARKUP>
3,5,7-trihydroxy-2-(4-hydroxyphenyl)chromen-4-one

> <PUBCHEM_IUPAC_OPENEYE_NAME>
3,5,7-trihydroxy-2-(4-hydroxyphenyl)chromen-4-one

> <PUBCHEM_IUPAC_SYSTEMATIC_NAME>
2-(4-hydroxyphenyl)-3,5,7-tris(oxidanyl)chromen-4-one

> <PUBCHEM_IUPAC_TRADITIONAL_NAME>
3,5,7-trihydroxy-2-(4-hydroxyphenyl)chromone

> <PUBCHEM_MOLECULAR_FORMULA>
C15H10O6

> <PUBCHEM_MOLECULAR_WEIGHT>
286.24

> <PUBCHEM_MONOISOTOPIC_WEIGHT>
286.04773803

> <PUBCHEM_OPENEYE_CAN_SMILES>
C1=CC(=CC=C1C2=C(C(=O)C3=C(C=C(C=C3O2)O)O)O)O

> <PUBCHEM_OPENEYE_ISO_SMILES>
C1=CC(=CC=C1C2=C(C(=O)C3=C(C=C(C=C3O2)O)O)O)O

> <PUBCHEM_TOTAL_CHARGE>
0

> <PUBCHEM_XLOGP3>
1.9

> <RelativeEnergy>
0

> <StereoisomerIndex>
1

> <TautomerIndex>
4

> <LibDock Warning>
no hit found

> <ErrorText>
LibDock failed

$$$$
5280863
  SciTegic09112317153D

 29 31  0  0  0  0            999 V2000
    0.2970    0.5880   -0.0100 O   0  0  0  1  0  0
   -1.8440   -2.1720    0.0180 O   0  5  0  1  0  0
    3.1880   -3.2460   -0.0150 O   0  0  0  1  0  0
    0.4610   -3.4280    0.0000 O   0  0  0  1  0  0
    5.0430    1.1430   -0.0580 O   0  0  0  1  0  0
   -5.8180    2.5680    0.0570 O   0  5  0  1  0  0
    1.7070   -1.3550   -0.0150 C   0  0  0  1  0  0
    1.5370    0.0530   -0.0190 C   0  0  0  1  0  0
   -0.8360   -0.1430    0.0060 C   0  0  0  1  0  0
    0.4920   -2.2170   -0.0020 C   0  0  0  1  0  0
   -0.8070   -1.5000    0.0080 C   0  0  0  1  0  0
   -2.1520    0.5740    0.0200 C   0  0  0  1  0  0
    3.0100   -1.9180   -0.0210 C   0  0  0  1  0  0
    2.6700    0.8990   -0.0370 C   0  0  0  1  0  0
    3.9710    0.3400   -0.0430 C   0  0  0  1  0  0
    4.1390   -1.0660   -0.0350 C   0  0  0  1  0  0
   -3.2150    0.0800    0.7970 C   0  0  0  1  0  0
   -2.3260    1.7420   -0.7440 C   0  0  0  1  0  0
   -4.4490    0.7520    0.8110 C   0  0  0  1  0  0
   -3.5610    2.4140   -0.7300 C   0  0  0  1  0  0
   -4.6230    1.9200    0.0450 C   0  0  0  1  0  0
    2.5430    1.9710   -0.0430 H   0  0  0  1  0  0
    5.1330   -1.4900   -0.0390 H   0  0  0  1  0  0
   -3.0920   -0.8160    1.3870 H   0  0  0  1  0  0
   -1.5160    2.1310   -1.3440 H   0  0  0  1  0  0
   -5.2640    0.3690    1.4080 H   0  0  0  1  0  0
   -3.6910    3.3110   -1.3180 H   0  0  0  1  0  0
    4.0840   -3.6040   -0.0190 H   0  0  0  1  0  0
    4.9180    2.1000   -0.0640 H   0  0  0  1  0  0
  1  8  1  0
  1  9  1  0
  2 11  1  0
  3 13  1  0
  3 28  1  0
  4 10  2  0
  5 15  1  0
  5 29  1  0
  6 21  1  0
  7  8  2  0
  7 10  1  0
  7 13  1  0
  8 14  1  0
  9 11  2  0
  9 12  1  0
 10 11  1  0
 12 17  2  0
 12 18  1  0
 13 16  2  0
 14 15  2  0
 14 22  1  0
 15 16  1  0
 16 23  1  0
 17 19  1  0
 17 24  1  0
 18 20  2  0
 18 25  1  0
 19 21  2  0
 19 26  1  0
 20 21  1  0
 20 27  1  0
M  CHG  2   2  -1   6  -1
M  END
> <Name>
5280863

> <AbsoluteEnergy>
35.2104

> <ConfNumber>
1

> <Ionization pH>
6.85_DDPP

> <IonizationIndex>
2

> <NumberOfIonizations>
2

> <NumberOfStereoisomers>
1

> <NumberOfTautomers>
3

> <OBJECTID>
9223375511486660621

> <PUBCHEM_ATOM_DEF_STEREO_COUNT>
0

> <PUBCHEM_ATOM_UDEF_STEREO_COUNT>
0

> <PUBCHEM_BONDANNOTATIONS>
1  8  8
1  9  8
10  11  8
12  17  8
12  18  8
13  16  8
14  15  8
15  16  8
17  19  8
18  20  8
19  21  8
20  21  8
7  10  8
7  13  8
7  8  8
8  14  8
9  11  8

> <PUBCHEM_BOND_DEF_STEREO_COUNT>
0

> <PUBCHEM_BOND_UDEF_STEREO_COUNT>
0

> <PUBCHEM_CACTVS_COMPLEXITY>
451

> <PUBCHEM_CACTVS_HBOND_ACCEPTOR>
6

> <PUBCHEM_CACTVS_HBOND_DONOR>
4

> <PUBCHEM_CACTVS_ROTATABLE_BOND>
1

> <PUBCHEM_CACTVS_SUBSKEYS>
AAADccBwOAAAAAAAAAAAAAAAAAAAAAAAAAAwYIAAAAAAAACBQAAAGgAACAAADASAmAAwBoAABgCIAqBSAAICCAAkIAAIiAFGCMgMJzaGNRqCeWCl4BUIuQfI7KzOIAAACAAIAABAAAAQABAAAAAAAAAAAA==

> <PUBCHEM_CACTVS_TAUTO_COUNT>
-1

> <PUBCHEM_CACTVS_TPSA>
107

> <PUBCHEM_COMPONENT_COUNT>
1

> <PUBCHEM_COMPOUND_CANONICALIZED>
1

> <PUBCHEM_COMPOUND_CID>
5280863

> <PUBCHEM_COORDINATE_TYPE>
1
5
255

> <PUBCHEM_EXACT_MASS>
286.04773803

> <PUBCHEM_HEAVY_ATOM_COUNT>
21

> <PUBCHEM_ISOTOPIC_ATOM_COUNT>
0

> <PUBCHEM_IUPAC_CAS_NAME>
3,5,7-trihydroxy-2-(4-hydroxyphenyl)-1-benzopyran-4-one

> <PUBCHEM_IUPAC_INCHI>
InChI=1S/C15H10O6/c16-8-3-1-7(2-4-8)15-14(20)13(19)12-10(18)5-9(17)6-11(12)21-15/h1-6,16-18,20H

> <PUBCHEM_IUPAC_INCHIKEY>
IYRMWMYZSQPJKC-UHFFFAOYSA-N

> <PUBCHEM_IUPAC_NAME>
3,5,7-trihydroxy-2-(4-hydroxyphenyl)chromen-4-one

> <PUBCHEM_IUPAC_NAME_MARKUP>
3,5,7-trihydroxy-2-(4-hydroxyphenyl)chromen-4-one

> <PUBCHEM_IUPAC_OPENEYE_NAME>
3,5,7-trihydroxy-2-(4-hydroxyphenyl)chromen-4-one

> <PUBCHEM_IUPAC_SYSTEMATIC_NAME>
2-(4-hydroxyphenyl)-3,5,7-tris(oxidanyl)chromen-4-one

> <PUBCHEM_IUPAC_TRADITIONAL_NAME>
3,5,7-trihydroxy-2-(4-hydroxyphenyl)chromone

> <PUBCHEM_MOLECULAR_FORMULA>
C15H10O6

> <PUBCHEM_MOLECULAR_WEIGHT>
286.24

> <PUBCHEM_MONOISOTOPIC_WEIGHT>
286.04773803

> <PUBCHEM_OPENEYE_CAN_SMILES>
C1=CC(=CC=C1C2=C(C(=O)C3=C(C=C(C=C3O2)O)O)O)O

> <PUBCHEM_OPENEYE_ISO_SMILES>
C1=CC(=CC=C1C2=C(C(=O)C3=C(C=C(C=C3O2)O)O)O)O

> <PUBCHEM_TOTAL_CHARGE>
0

> <PUBCHEM_XLOGP3>
1.9

> <RelativeEnergy>
0

> <StereoisomerIndex>
1

> <TautomerIndex>
1

> <LibDock Warning>
no hit found

> <ErrorText>
LibDock failed

$$$$
5280863
  SciTegic09112317153D

 29 31  0  0  0  0            999 V2000
    0.5200   -0.6520   -0.0120 O   0  0  0  1  0  0
   -1.8630    1.9370   -0.0080 O   0  5  0  1  0  0
    2.9360    3.4320    0.9040 O   0  0  0  1  0  0
    0.3090    3.4820    0.5160 O   0  0  0  1  0  0
    5.2230   -0.6020    0.6430 O   0  0  0  1  0  0
   -5.3200   -3.0310   -1.1640 O   0  5  0  1  0  0
    1.6090    1.5370    0.4410 C   0  0  0  1  0  0
    1.6350    0.0660    0.2420 C   0  0  0  1  0  0
   -0.6580    0.0120   -0.0900 C   0  0  0  1  0  0
    0.4200    2.1640    0.3530 C   0  0  0  1  0  0
   -0.7770    1.3550    0.0720 C   0  0  0  1  0  0
   -1.8890   -0.7910   -0.3730 C   0  0  0  1  0  0
    2.8850    2.2360    0.7230 C   0  0  0  1  0  0
    2.8140   -0.5900    0.3140 C   0  0  0  1  0  0
    4.0960    0.0990    0.5880 C   0  0  0  1  0  0
    4.1190    1.4330    0.7790 C   0  0  0  1  0  0
   -1.8440   -1.8440   -1.3070 C   0  0  0  1  0  0
   -3.0920   -0.4980    0.2930 C   0  0  0  1  0  0
   -3.0000   -2.5980   -1.5720 C   0  0  0  1  0  0
   -4.2460   -1.2520    0.0270 C   0  0  0  1  0  0
   -4.2010   -2.3030   -0.9060 C   0  0  0  1  0  0
    2.8260   -1.6600    0.1680 H   0  0  0  1  0  0
    5.0610    1.9260    0.9800 H   0  0  0  1  0  0
   -0.9240   -2.0780   -1.8240 H   0  0  0  1  0  0
   -3.1370    0.3080    1.0120 H   0  0  0  1  0  0
   -2.9610   -3.4060   -2.2890 H   0  0  0  1  0  0
   -5.1700   -1.0220    0.5410 H   0  0  0  1  0  0
    5.1930   -1.5570    0.5020 H   0  0  0  1  0  0
   -0.5630    3.8960    0.4470 H   0  0  0  1  0  0
  1  8  1  0
  1  9  1  0
  2 11  1  0
  3 13  2  0
  4 10  1  0
  4 29  1  0
  5 15  1  0
  5 28  1  0
  6 21  1  0
  7  8  1  0
  7 10  2  0
  7 13  1  0
  8 14  2  0
  9 11  2  0
  9 12  1  0
 10 11  1  0
 12 17  2  0
 12 18  1  0
 13 16  1  0
 14 15  1  0
 14 22  1  0
 15 16  2  0
 16 23  1  0
 17 19  1  0
 17 24  1  0
 18 20  2  0
 18 25  1  0
 19 21  2  0
 19 26  1  0
 20 21  1  0
 20 27  1  0
M  CHG  2   2  -1   6  -1
M  END
> <Name>
5280863

> <AbsoluteEnergy>
30.3945

> <ConfNumber>
1

> <Ionization pH>
6.85_DDPP

> <IonizationIndex>
2

> <NumberOfIonizations>
2

> <NumberOfStereoisomers>
1

> <NumberOfTautomers>
3

> <OBJECTID>
9223375515781627917

> <PUBCHEM_ATOM_DEF_STEREO_COUNT>
0

> <PUBCHEM_ATOM_UDEF_STEREO_COUNT>
0

> <PUBCHEM_BONDANNOTATIONS>
1  8  8
1  9  8
10  11  8
12  17  8
12  18  8
13  16  8
14  15  8
15  16  8
17  19  8
18  20  8
19  21  8
20  21  8
7  10  8
7  13  8
7  8  8
8  14  8
9  11  8

> <PUBCHEM_BOND_DEF_STEREO_COUNT>
0

> <PUBCHEM_BOND_UDEF_STEREO_COUNT>
0

> <PUBCHEM_CACTVS_COMPLEXITY>
451

> <PUBCHEM_CACTVS_HBOND_ACCEPTOR>
6

> <PUBCHEM_CACTVS_HBOND_DONOR>
4

> <PUBCHEM_CACTVS_ROTATABLE_BOND>
1

> <PUBCHEM_CACTVS_SUBSKEYS>
AAADccBwOAAAAAAAAAAAAAAAAAAAAAAAAAAwYIAAAAAAAACBQAAAGgAACAAADASAmAAwBoAABgCIAqBSAAICCAAkIAAIiAFGCMgMJzaGNRqCeWCl4BUIuQfI7KzOIAAACAAIAABAAAAQABAAAAAAAAAAAA==

> <PUBCHEM_CACTVS_TAUTO_COUNT>
-1

> <PUBCHEM_CACTVS_TPSA>
107

> <PUBCHEM_COMPONENT_COUNT>
1

> <PUBCHEM_COMPOUND_CANONICALIZED>
1

> <PUBCHEM_COMPOUND_CID>
5280863

> <PUBCHEM_COORDINATE_TYPE>
1
5
255

> <PUBCHEM_EXACT_MASS>
286.04773803

> <PUBCHEM_HEAVY_ATOM_COUNT>
21

> <PUBCHEM_ISOTOPIC_ATOM_COUNT>
0

> <PUBCHEM_IUPAC_CAS_NAME>
3,5,7-trihydroxy-2-(4-hydroxyphenyl)-1-benzopyran-4-one

> <PUBCHEM_IUPAC_INCHI>
InChI=1S/C15H10O6/c16-8-3-1-7(2-4-8)15-14(20)13(19)12-10(18)5-9(17)6-11(12)21-15/h1-6,16-18,20H

> <PUBCHEM_IUPAC_INCHIKEY>
IYRMWMYZSQPJKC-UHFFFAOYSA-N

> <PUBCHEM_IUPAC_NAME>
3,5,7-trihydroxy-2-(4-hydroxyphenyl)chromen-4-one

> <PUBCHEM_IUPAC_NAME_MARKUP>
3,5,7-trihydroxy-2-(4-hydroxyphenyl)chromen-4-one

> <PUBCHEM_IUPAC_OPENEYE_NAME>
3,5,7-trihydroxy-2-(4-hydroxyphenyl)chromen-4-one

> <PUBCHEM_IUPAC_SYSTEMATIC_NAME>
2-(4-hydroxyphenyl)-3,5,7-tris(oxidanyl)chromen-4-one

> <PUBCHEM_IUPAC_TRADITIONAL_NAME>
3,5,7-trihydroxy-2-(4-hydroxyphenyl)chromone

> <PUBCHEM_MOLECULAR_FORMULA>
C15H10O6

> <PUBCHEM_MOLECULAR_WEIGHT>
286.24

> <PUBCHEM_MONOISOTOPIC_WEIGHT>
286.04773803

> <PUBCHEM_OPENEYE_CAN_SMILES>
C1=CC(=CC=C1C2=C(C(=O)C3=C(C=C(C=C3O2)O)O)O)O

> <PUBCHEM_OPENEYE_ISO_SMILES>
C1=CC(=CC=C1C2=C(C(=O)C3=C(C=C(C=C3O2)O)O)O)O

> <PUBCHEM_TOTAL_CHARGE>
0

> <PUBCHEM_XLOGP3>
1.9

> <RelativeEnergy>
0

> <StereoisomerIndex>
1

> <TautomerIndex>
2

> <LibDock Warning>
no hit found

> <ErrorText>
LibDock failed

$$$$
5280863
  SciTegic09112317153D

 29 31  0  0  0  0            999 V2000
    0.5370   -0.8830   -0.1410 O   0  0  0  1  0  0
   -1.7150    1.7970    0.2130 O   0  5  0  1  0  0
    3.1530    3.1290    1.0900 O   0  0  0  1  0  0
    0.5410    3.1860    0.7910 O   0  0  0  1  0  0
    5.1560   -0.9960    0.3670 O   0  0  0  1  0  0
   -5.4470   -2.8730   -1.2930 O   0  5  0  1  0  0
    1.7500    1.2030    0.4780 C   0  0  0  1  0  0
    1.6940   -0.2440    0.1400 C   0  0  0  1  0  0
   -0.6070   -0.1620   -0.1100 C   0  0  0  1  0  0
    0.5880    1.8850    0.5000 C   0  0  0  1  0  0
   -0.6560    1.1600    0.1890 C   0  0  0  1  0  0
   -1.8850   -0.8790   -0.4200 C   0  0  0  1  0  0
    3.0630    1.8380    0.7790 C   0  0  0  1  0  0
    2.8380   -0.9590    0.1070 C   0  0  0  1  0  0
    4.1410   -0.3400    0.4020 C   0  0  0  1  0  0
    4.1860    1.0940    0.7400 C   0  0  0  1  0  0
   -1.9240   -1.8340   -1.4530 C   0  0  0  1  0  0
   -3.0490   -0.5980    0.3180 C   0  0  0  1  0  0
   -3.1230   -2.5060   -1.7460 C   0  0  0  1  0  0
   -4.2480   -1.2690    0.0230 C   0  0  0  1  0  0
   -4.2850   -2.2250   -1.0080 C   0  0  0  1  0  0
    2.7990   -2.0120   -0.1390 H   0  0  0  1  0  0
    5.1390    1.5550    0.9590 H   0  0  0  1  0  0
   -1.0350   -2.0570   -2.0260 H   0  0  0  1  0  0
   -3.0310    0.1330    1.1130 H   0  0  0  1  0  0
   -3.1460   -3.2400   -2.5390 H   0  0  0  1  0  0
   -5.1410   -1.0530    0.5920 H   0  0  0  1  0  0
    4.0200    3.5100    1.2790 H   0  0  0  1  0  0
   -0.3120    3.6370    0.7950 H   0  0  0  1  0  0
  1  8  1  0
  1  9  1  0
  2 11  1  0
  3 13  1  0
  3 28  1  0
  4 10  1  0
  4 29  1  0
  5 15  2  0
  6 21  1  0
  7  8  1  0
  7 10  2  0
  7 13  1  0
  8 14  2  0
  9 11  2  0
  9 12  1  0
 10 11  1  0
 12 17  2  0
 12 18  1  0
 13 16  2  0
 14 15  1  0
 14 22  1  0
 15 16  1  0
 16 23  1  0
 17 19  1  0
 17 24  1  0
 18 20  2  0
 18 25  1  0
 19 21  2  0
 19 26  1  0
 20 21  1  0
 20 27  1  0
M  CHG  2   2  -1   6  -1
M  END
> <Name>
5280863

> <AbsoluteEnergy>
30.6749

> <ConfNumber>
1

> <Ionization pH>
6.85_DDPP

> <IonizationIndex>
2

> <NumberOfIonizations>
2

> <NumberOfStereoisomers>
1

> <NumberOfTautomers>
3

> <OBJECTID>
9223375520076595213

> <PUBCHEM_ATOM_DEF_STEREO_COUNT>
0

> <PUBCHEM_ATOM_UDEF_STEREO_COUNT>
0

> <PUBCHEM_BONDANNOTATIONS>
1  8  8
1  9  8
10  11  8
12  17  8
12  18  8
13  16  8
14  15  8
15  16  8
17  19  8
18  20  8
19  21  8
20  21  8
7  10  8
7  13  8
7  8  8
8  14  8
9  11  8

> <PUBCHEM_BOND_DEF_STEREO_COUNT>
0

> <PUBCHEM_BOND_UDEF_STEREO_COUNT>
0

> <PUBCHEM_CACTVS_COMPLEXITY>
451

> <PUBCHEM_CACTVS_HBOND_ACCEPTOR>
6

> <PUBCHEM_CACTVS_HBOND_DONOR>
4

> <PUBCHEM_CACTVS_ROTATABLE_BOND>
1

> <PUBCHEM_CACTVS_SUBSKEYS>
AAADccBwOAAAAAAAAAAAAAAAAAAAAAAAAAAwYIAAAAAAAACBQAAAGgAACAAADASAmAAwBoAABgCIAqBSAAICCAAkIAAIiAFGCMgMJzaGNRqCeWCl4BUIuQfI7KzOIAAACAAIAABAAAAQABAAAAAAAAAAAA==

> <PUBCHEM_CACTVS_TAUTO_COUNT>
-1

> <PUBCHEM_CACTVS_TPSA>
107

> <PUBCHEM_COMPONENT_COUNT>
1

> <PUBCHEM_COMPOUND_CANONICALIZED>
1

> <PUBCHEM_COMPOUND_CID>
5280863

> <PUBCHEM_COORDINATE_TYPE>
1
5
255

> <PUBCHEM_EXACT_MASS>
286.04773803

> <PUBCHEM_HEAVY_ATOM_COUNT>
21

> <PUBCHEM_ISOTOPIC_ATOM_COUNT>
0

> <PUBCHEM_IUPAC_CAS_NAME>
3,5,7-trihydroxy-2-(4-hydroxyphenyl)-1-benzopyran-4-one

> <PUBCHEM_IUPAC_INCHI>
InChI=1S/C15H10O6/c16-8-3-1-7(2-4-8)15-14(20)13(19)12-10(18)5-9(17)6-11(12)21-15/h1-6,16-18,20H

> <PUBCHEM_IUPAC_INCHIKEY>
IYRMWMYZSQPJKC-UHFFFAOYSA-N

> <PUBCHEM_IUPAC_NAME>
3,5,7-trihydroxy-2-(4-hydroxyphenyl)chromen-4-one

> <PUBCHEM_IUPAC_NAME_MARKUP>
3,5,7-trihydroxy-2-(4-hydroxyphenyl)chromen-4-one

> <PUBCHEM_IUPAC_OPENEYE_NAME>
3,5,7-trihydroxy-2-(4-hydroxyphenyl)chromen-4-one

> <PUBCHEM_IUPAC_SYSTEMATIC_NAME>
2-(4-hydroxyphenyl)-3,5,7-tris(oxidanyl)chromen-4-one

> <PUBCHEM_IUPAC_TRADITIONAL_NAME>
3,5,7-trihydroxy-2-(4-hydroxyphenyl)chromone

> <PUBCHEM_MOLECULAR_FORMULA>
C15H10O6

> <PUBCHEM_MOLECULAR_WEIGHT>
286.24

> <PUBCHEM_MONOISOTOPIC_WEIGHT>
286.04773803

> <PUBCHEM_OPENEYE_CAN_SMILES>
C1=CC(=CC=C1C2=C(C(=O)C3=C(C=C(C=C3O2)O)O)O)O

> <PUBCHEM_OPENEYE_ISO_SMILES>
C1=CC(=CC=C1C2=C(C(=O)C3=C(C=C(C=C3O2)O)O)O)O

> <PUBCHEM_TOTAL_CHARGE>
0

> <PUBCHEM_XLOGP3>
1.9

> <RelativeEnergy>
0

> <StereoisomerIndex>
1

> <TautomerIndex>
3

> <LibDock Warning>
no hit found

> <ErrorText>
LibDock failed

$$$$
5281643
  SciTegic09112317153D

 53 56  0  0  0  0            999 V2000
    0.2600   -0.5960   -1.1350 O   0  0  0  1  0  0
    0.4210   -1.1370    1.1150 O   0  0  0  1  0  0
    1.2010   -3.1790   -2.5560 O   0  0  0  1  0  0
    2.4850   -1.0290   -4.0080 O   0  0  0  1  0  0
    3.1580   -2.2120    0.2440 O   0  0  0  1  0  0
   -0.8460   -1.5440   -3.2660 O   0  0  0  1  0  0
   -1.7910    1.6790    1.5770 O   0  0  0  1  0  0
   -1.9580   -2.3130    0.3680 O   0  0  0  1  0  0
   -4.5910   -2.1730    0.3330 O   0  0  0  1  0  0
   -6.2870    2.1590    0.4940 O   0  0  0  1  0  0
    2.6000    4.4860    1.5020 O   0  0  0  1  0  0
    4.1660    3.1490    3.3040 O   0  0  0  1  0  0
    2.2080   -2.3660   -1.9750 C   0  0  1  1  0  0
    2.1910   -0.9640   -2.6240 C   0  0  2  1  0  0
    1.9260   -2.2270   -0.4540 C   0  0  2  1  0  0
    0.8760   -0.1710   -2.3490 C   0  0  1  1  0  0
    1.1540   -0.9300   -0.0850 C   0  0  1  1  0  0
   -0.1980   -0.3030   -3.4350 C   0  0  0  1  0  0
   -0.6920   -0.4030    1.1600 C   0  0  0  1  0  0
   -0.6890    0.8920    1.5670 C   0  0  0  1  0  0
   -1.9550   -1.0360    0.7570 C   0  0  0  1  0  0
   -3.0810   -0.2990    0.8010 C   0  0  0  1  0  0
   -2.9540    1.1390    1.1630 C   0  0  0  1  0  0
    0.6010    1.4920    2.0270 C   0  0  0  1  0  0
   -4.4240   -0.8660    0.5120 C   0  0  0  1  0  0
   -4.0340    1.9420    1.0760 C   0  0  0  1  0  0
    1.0120    2.7440    1.5360 C   0  0  0  1  0  0
    1.4060    0.8070    2.9540 C   0  0  0  1  0  0
   -5.4900   -0.0390    0.4440 C   0  0  0  1  0  0
   -5.3450    1.4150    0.6590 C   0  0  0  1  0  0
    2.2240    3.3120    1.9680 C   0  0  0  1  0  0
    2.6180    1.3730    3.3860 C   0  0  0  1  0  0
    3.0290    2.6250    2.8950 C   0  0  0  1  0  0
    3.1550   -2.8740   -2.1670 H   0  0  0  1  0  0
    3.0140   -0.4000   -2.1830 H   0  0  0  1  0  0
    1.3910   -3.1040   -0.0800 H   0  0  0  1  0  0
    1.1260    0.8830   -2.2310 H   0  0  0  1  0  0
    1.8160   -0.0760    0.0700 H   0  0  0  1  0  0
   -0.9470    0.4860   -3.3330 H   0  0  0  1  0  0
    0.2510   -0.2860   -4.4260 H   0  0  0  1  0  0
   -3.9400    2.9930    1.3140 H   0  0  0  1  0  0
    0.3980    3.2760    0.8230 H   0  0  0  1  0  0
    1.0980   -0.1550    3.3380 H   0  0  0  1  0  0
   -6.4670   -0.4430    0.2340 H   0  0  0  1  0  0
    3.2340    0.8440    4.0990 H   0  0  0  1  0  0
    1.2750   -4.0580   -2.1520 H   0  0  0  1  0  0
    2.5120   -0.1170   -4.3360 H   0  0  0  1  0  0
    2.9500   -2.1560    1.1890 H   0  0  0  1  0  0
   -1.5210   -1.6110   -3.9590 H   0  0  0  1  0  0
   -5.4760   -2.5150    0.1460 H   0  0  0  1  0  0
    3.4350    4.8690    1.8040 H   0  0  0  1  0  0
    4.7080    2.6660    3.9410 H   0  0  0  1  0  0
   -1.1420   -2.8260    0.4220 H   0  0  0  1  0  0
  1 16  1  0
  1 17  1  0
  2 17  1  0
  2 19  1  0
  3 13  1  0
  3 46  1  0
  4 14  1  0
  4 47  1  0
  5 15  1  0
  5 48  1  0
  6 18  1  0
  6 49  1  0
  7 20  1  0
  7 23  1  0
  8 21  1  0
  8 53  1  0
  9 25  1  0
  9 50  1  0
 10 30  2  0
 11 31  1  0
 11 51  1  0
 12 33  1  0
 12 52  1  0
 13 14  1  0
 13 15  1  0
 13 34  1  0
 14 16  1  0
 14 35  1  0
 15 17  1  0
 15 36  1  0
 16 18  1  0
 16 37  1  0
 17 38  1  0
 18 39  1  0
 18 40  1  0
 19 20  2  0
 19 21  1  0
 20 24  1  0
 21 22  2  0
 22 23  1  0
 22 25  1  0
 23 26  2  0
 24 27  2  0
 24 28  1  0
 25 29  2  0
 26 30  1  0
 26 41  1  0
 27 31  1  0
 27 42  1  0
 28 32  2  0
 28 43  1  0
 29 30  1  0
 29 44  1  0
 31 33  2  0
 32 33  1  0
 32 45  1  0
M  END
> <Name>
5281643

> <AbsoluteEnergy>
49.409

> <ConfNumber>
1

> <Ionization pH>
7.5

> <IonizationIndex>
1

> <NumberOfIonizations>
1

> <NumberOfStereoisomers>
1

> <NumberOfTautomers>
4

> <OBJECTID>
9223375541551431693

> <PUBCHEM_ATOM_DEF_STEREO_COUNT>
5

> <PUBCHEM_ATOM_UDEF_STEREO_COUNT>
0

> <PUBCHEM_BONDANNOTATIONS>
16  18  5
19  20  8
19  21  8
17  2  5
21  22  8
22  23  8
22  25  8
23  26  8
24  27  8
24  28  8
25  29  8
26  30  8
27  31  8
28  32  8
29  30  8
13  3  5
31  33  8
32  33  8
14  4  5
15  5  6
7  20  8
7  23  8

> <PUBCHEM_BOND_DEF_STEREO_COUNT>
0

> <PUBCHEM_BOND_UDEF_STEREO_COUNT>
0

> <PUBCHEM_CACTVS_COMPLEXITY>
758

> <PUBCHEM_CACTVS_HBOND_ACCEPTOR>
12

> <PUBCHEM_CACTVS_HBOND_DONOR>
8

> <PUBCHEM_CACTVS_ROTATABLE_BOND>
4

> <PUBCHEM_CACTVS_SUBSKEYS>
AAADceB4PAAAAAAAAAAAAAAAAAAAAAAAAAA0YIEAAAAAAACBQAAAGgAACAAADBSwmAMwDoAABgCIAqBSAAICCAAkIAAIiAFGiMgdNzaGNR6ieWGl4BUPuQfI7LzOIAABCAAIQABAAAIQABCAAAAAAAAAAA==

> <PUBCHEM_CACTVS_TAUTO_COUNT>
162

> <PUBCHEM_CACTVS_TPSA>
207

> <PUBCHEM_COMPONENT_COUNT>
1

> <PUBCHEM_COMPOUND_CANONICALIZED>
1

> <PUBCHEM_COMPOUND_CID>
5281643

> <PUBCHEM_COORDINATE_TYPE>
1
5
255

> <PUBCHEM_EXACT_MASS>
464.09547607

> <PUBCHEM_HEAVY_ATOM_COUNT>
33

> <PUBCHEM_ISOTOPIC_ATOM_COUNT>
0

> <PUBCHEM_IUPAC_CAS_NAME>
2-(3,4-dihydroxyphenyl)-5,7-dihydroxy-3-[[(2S,3R,4S,5R,6R)-3,4,5-trihydroxy-6-(hydroxymethyl)-2-oxanyl]oxy]-1-benzopyran-4-one

> <PUBCHEM_IUPAC_INCHI>
InChI=1S/C21H20O12/c22-6-13-15(27)17(29)18(30)21(32-13)33-20-16(28)14-11(26)4-8(23)5-12(14)31-19(20)7-1-2-9(24)10(25)3-7/h1-5,13,15,17-18,21-27,29-30H,6H2/t13-,15+,17+,18-,21+/m1/s1

> <PUBCHEM_IUPAC_INCHIKEY>
OVSQVDMCBVZWGM-DTGCRPNFSA-N

> <PUBCHEM_IUPAC_NAME>
2-(3,4-dihydroxyphenyl)-5,7-dihydroxy-3-[(2S,3R,4S,5R,6R)-3,4,5-trihydroxy-6-(hydroxymethyl)oxan-2-yl]oxychromen-4-one

> <PUBCHEM_IUPAC_NAME_MARKUP>
2-(3,4-dihydroxyphenyl)-5,7-dihydroxy-3-[(2<I>S</I>,3<I>R</I>,4<I>S</I>,5<I>R</I>,6<I>R</I>)-3,4,5-trihydroxy-6-(hydroxymethyl)oxan-2-yl]oxychromen-4-one

> <PUBCHEM_IUPAC_OPENEYE_NAME>
2-(3,4-dihydroxyphenyl)-5,7-dihydroxy-3-[(2S,3R,4S,5R,6R)-3,4,5-trihydroxy-6-(hydroxymethyl)tetrahydropyran-2-yl]oxy-chromen-4-one

> <PUBCHEM_IUPAC_SYSTEMATIC_NAME>
2-[3,4-bis(oxidanyl)phenyl]-3-[(2S,3R,4S,5R,6R)-6-(hydroxymethyl)-3,4,5-tris(oxidanyl)oxan-2-yl]oxy-5,7-bis(oxidanyl)chromen-4-one

> <PUBCHEM_IUPAC_TRADITIONAL_NAME>
2-(3,4-dihydroxyphenyl)-5,7-dihydroxy-3-[(2S,3R,4S,5R,6R)-3,4,5-trihydroxy-6-methylol-tetrahydropyran-2-yl]oxy-chromone

> <PUBCHEM_MOLECULAR_FORMULA>
C21H20O12

> <PUBCHEM_MOLECULAR_WEIGHT>
464.4

> <PUBCHEM_MONOISOTOPIC_WEIGHT>
464.09547607

> <PUBCHEM_OPENEYE_CAN_SMILES>
C1=CC(=C(C=C1C2=C(C(=O)C3=C(C=C(C=C3O2)O)O)OC4C(C(C(C(O4)CO)O)O)O)O)O

> <PUBCHEM_OPENEYE_ISO_SMILES>
C1=CC(=C(C=C1C2=C(C(=O)C3=C(C=C(C=C3O2)O)O)O[C@H]4[C@@H]([C@H]([C@H]([C@H](O4)CO)O)O)O)O)O

> <PUBCHEM_TOTAL_CHARGE>
0

> <PUBCHEM_XLOGP3_AA>
0.4

> <RelativeEnergy>
0

> <StereoisomerIndex>
1

> <TautomerIndex>
3

> <LibDock Warning>
no hit found

> <ErrorText>
LibDock failed

$$$$
5281672
  SciTegic09112317153D

 32 34  0  0  0  0            999 V2000
    0.7750    0.3380    0.0180 O   0  0  0  1  0  0
   -1.3650   -2.4220    0.0450 O   0  5  0  1  0  0
    3.6660   -3.4980    0.0140 O   0  0  0  1  0  0
    0.9390   -3.6780    0.0270 O   0  0  0  1  0  0
    5.5230    0.8910   -0.0290 O   0  0  0  1  0  0
   -4.9630    0.0350    1.5740 O   0  0  0  1  0  0
   -3.2400    3.2560   -1.4240 O   0  0  0  1  0  0
   -5.3010    2.3010    0.0880 O   0  0  0  1  0  0
    2.1860   -1.6050    0.0140 C   0  0  0  1  0  0
   -0.3570   -0.3940    0.0330 C   0  0  0  1  0  0
    2.0160   -0.1970    0.0080 C   0  0  0  1  0  0
   -1.6740    0.3220    0.0470 C   0  0  0  1  0  0
   -0.3280   -1.7520    0.0350 C   0  0  0  1  0  0
    0.9710   -2.4690    0.0250 C   0  0  0  1  0  0
    3.4880   -2.1700    0.0060 C   0  0  0  1  0  0
    3.1500    0.6470   -0.0080 C   0  0  0  1  0  0
   -1.8480    1.4900   -0.7170 C   0  0  0  1  0  0
   -2.7340   -0.1700    0.8260 C   0  0  0  1  0  0
    4.4490    0.0880   -0.0160 C   0  0  0  1  0  0
    4.6170   -1.3160   -0.0060 C   0  0  0  1  0  0
   -3.9710    0.5020    0.8420 C   0  0  0  1  0  0
   -3.0820    2.1640   -0.7050 C   0  0  0  1  0  0
   -4.1450    1.6700    0.0760 C   0  0  0  1  0  0
    3.0210    1.7190   -0.0160 H   0  0  0  1  0  0
   -1.0370    1.8730   -1.3180 H   0  0  0  1  0  0
   -2.6080   -1.0660    1.4180 H   0  0  0  1  0  0
    5.6110   -1.7400   -0.0100 H   0  0  0  1  0  0
    4.5630   -3.8550    0.0080 H   0  0  0  1  0  0
    5.3970    1.8480   -0.0350 H   0  0  0  1  0  0
   -5.8070    0.5040    1.5780 H   0  0  0  1  0  0
   -2.5020    3.5840   -1.9550 H   0  0  0  1  0  0
   -5.4100    3.1020   -0.4410 H   0  0  0  1  0  0
  1 10  1  0
  1 11  1  0
  2 13  1  0
  3 15  1  0
  3 28  1  0
  4 14  2  0
  5 19  1  0
  5 29  1  0
  6 21  1  0
  6 30  1  0
  7 22  1  0
  7 31  1  0
  8 23  1  0
  8 32  1  0
  9 11  2  0
  9 14  1  0
  9 15  1  0
 10 12  1  0
 10 13  2  0
 11 16  1  0
 12 17  2  0
 12 18  1  0
 13 14  1  0
 15 20  2  0
 16 19  2  0
 16 24  1  0
 17 22  1  0
 17 25  1  0
 18 21  2  0
 18 26  1  0
 19 20  1  0
 20 27  1  0
 21 23  1  0
 22 23  2  0
M  CHG  1   2  -1
M  END
> <Name>
5281672

> <AbsoluteEnergy>
37.9406

> <ConfNumber>
1

> <Ionization pH>
7.5

> <IonizationIndex>
1

> <NumberOfIonizations>
1

> <NumberOfStereoisomers>
1

> <NumberOfTautomers>
4

> <OBJECTID>
9223375550141366285

> <PUBCHEM_ATOM_DEF_STEREO_COUNT>
0

> <PUBCHEM_ATOM_UDEF_STEREO_COUNT>
0

> <PUBCHEM_BONDANNOTATIONS>
1  10  8
1  11  8
10  13  8
11  16  8
12  17  8
12  18  8
13  14  8
15  20  8
16  19  8
17  22  8
18  21  8
19  20  8
21  23  8
22  23  8
9  11  8
9  14  8
9  15  8

> <PUBCHEM_BOND_DEF_STEREO_COUNT>
0

> <PUBCHEM_BOND_UDEF_STEREO_COUNT>
0

> <PUBCHEM_CACTVS_COMPLEXITY>
506

> <PUBCHEM_CACTVS_HBOND_ACCEPTOR>
8

> <PUBCHEM_CACTVS_HBOND_DONOR>
6

> <PUBCHEM_CACTVS_ROTATABLE_BOND>
1

> <PUBCHEM_CACTVS_SUBSKEYS>
AAADccBwPAAAAAAAAAAAAAAAAAAAAAAAAAAwYIAAAAAAAACBQAAAGgAACAAADASAmAAwBoAABgCIAqBSAAICCAAkIAAAiAFGiMgNJzaGNRqCeWGl4BUJuQfI7LzOIAABCAAIQABAAAIQABCAAAAAAAAAAA==

> <PUBCHEM_CACTVS_TAUTO_COUNT>
-1

> <PUBCHEM_CACTVS_TPSA>
148

> <PUBCHEM_COMPONENT_COUNT>
1

> <PUBCHEM_COMPOUND_CANONICALIZED>
1

> <PUBCHEM_COMPOUND_CID>
5281672

> <PUBCHEM_COORDINATE_TYPE>
1
5
255

> <PUBCHEM_EXACT_MASS>
318.03756727

> <PUBCHEM_HEAVY_ATOM_COUNT>
23

> <PUBCHEM_ISOTOPIC_ATOM_COUNT>
0

> <PUBCHEM_IUPAC_CAS_NAME>
3,5,7-trihydroxy-2-(3,4,5-trihydroxyphenyl)-1-benzopyran-4-one

> <PUBCHEM_IUPAC_INCHI>
InChI=1S/C15H10O8/c16-6-3-7(17)11-10(4-6)23-15(14(22)13(11)21)5-1-8(18)12(20)9(19)2-5/h1-4,16-20,22H

> <PUBCHEM_IUPAC_INCHIKEY>
IKMDFBPHZNJCSN-UHFFFAOYSA-N

> <PUBCHEM_IUPAC_NAME>
3,5,7-trihydroxy-2-(3,4,5-trihydroxyphenyl)chromen-4-one

> <PUBCHEM_IUPAC_NAME_MARKUP>
3,5,7-trihydroxy-2-(3,4,5-trihydroxyphenyl)chromen-4-one

> <PUBCHEM_IUPAC_OPENEYE_NAME>
3,5,7-trihydroxy-2-(3,4,5-trihydroxyphenyl)chromen-4-one

> <PUBCHEM_IUPAC_SYSTEMATIC_NAME>
3,5,7-tris(oxidanyl)-2-[3,4,5-tris(oxidanyl)phenyl]chromen-4-one

> <PUBCHEM_IUPAC_TRADITIONAL_NAME>
3,5,7-trihydroxy-2-(3,4,5-trihydroxyphenyl)chromone

> <PUBCHEM_MOLECULAR_FORMULA>
C15H10O8

> <PUBCHEM_MOLECULAR_WEIGHT>
318.23

> <PUBCHEM_MONOISOTOPIC_WEIGHT>
318.03756727

> <PUBCHEM_OPENEYE_CAN_SMILES>
C1=C(C=C(C(=C1O)O)O)C2=C(C(=O)C3=C(C=C(C=C3O2)O)O)O

> <PUBCHEM_OPENEYE_ISO_SMILES>
C1=C(C=C(C(=C1O)O)O)C2=C(C(=O)C3=C(C=C(C=C3O2)O)O)O

> <PUBCHEM_TOTAL_CHARGE>
0

> <PUBCHEM_XLOGP3>
1.2

> <RelativeEnergy>
0

> <StereoisomerIndex>
1

> <TautomerIndex>
1

> <LibDock Warning>
no hit found

> <ErrorText>
LibDock failed

$$$$
5281672
  SciTegic09112317153D

 32 34  0  0  0  0            999 V2000
    0.9470   -0.3670    0.1210 O   0  0  0  1  0  0
   -1.4350    2.2210    0.1250 O   0  5  0  1  0  0
    3.3620    3.7150    1.0370 O   0  0  0  1  0  0
    0.7370    3.7680    0.6500 O   0  0  0  1  0  0
    5.6510   -0.3180    0.7750 O   0  0  0  1  0  0
   -4.9430   -0.6890    0.7930 O   0  0  0  1  0  0
   -2.5250   -3.2970   -2.3190 O   0  0  0  1  0  0
   -4.8570   -2.7280   -1.0220 O   0  0  0  1  0  0
    2.0350    1.8210    0.5740 C   0  0  0  1  0  0
   -0.2300    0.2970    0.0430 C   0  0  0  1  0  0
    2.0630    0.3500    0.3750 C   0  0  0  1  0  0
   -1.4610   -0.5070   -0.2400 C   0  0  0  1  0  0
   -0.3490    1.6390    0.2050 C   0  0  0  1  0  0
    0.8480    2.4500    0.4860 C   0  0  0  1  0  0
    3.3130    2.5200    0.8550 C   0  0  0  1  0  0
    3.2420   -0.3040    0.4470 C   0  0  0  1  0  0
   -1.4180   -1.5560   -1.1740 C   0  0  0  1  0  0
   -2.6620   -0.2140    0.4280 C   0  0  0  1  0  0
    4.5220    0.3850    0.7210 C   0  0  0  1  0  0
    4.5470    1.7190    0.9140 C   0  0  0  1  0  0
   -3.8200   -0.9680    0.1640 C   0  0  0  1  0  0
   -2.5720   -2.3140   -1.4420 C   0  0  0  1  0  0
   -3.7750   -2.0190   -0.7720 C   0  0  0  1  0  0
    3.2540   -1.3750    0.3010 H   0  0  0  1  0  0
   -0.4980   -1.7890   -1.6920 H   0  0  0  1  0  0
   -2.7050    0.5920    1.1460 H   0  0  0  1  0  0
    5.4890    2.2090    1.1130 H   0  0  0  1  0  0
    5.6210   -1.2730    0.6350 H   0  0  0  1  0  0
   -5.7340   -1.2130    0.6050 H   0  0  0  1  0  0
   -1.6930   -3.4880   -2.7700 H   0  0  0  1  0  0
   -4.8160   -3.4470   -1.6640 H   0  0  0  1  0  0
   -0.1350    4.1800    0.5800 H   0  0  0  1  0  0
  1 10  1  0
  1 11  1  0
  2 13  1  0
  3 15  2  0
  4 14  1  0
  4 32  1  0
  5 19  1  0
  5 28  1  0
  6 21  1  0
  6 29  1  0
  7 22  1  0
  7 30  1  0
  8 23  1  0
  8 31  1  0
  9 11  1  0
  9 14  2  0
  9 15  1  0
 10 12  1  0
 10 13  2  0
 11 16  2  0
 12 17  2  0
 12 18  1  0
 13 14  1  0
 15 20  1  0
 16 19  1  0
 16 24  1  0
 17 22  1  0
 17 25  1  0
 18 21  2  0
 18 26  1  0
 19 20  2  0
 20 27  1  0
 21 23  1  0
 22 23  2  0
M  CHG  1   2  -1
M  END
> <Name>
5281672

> <AbsoluteEnergy>
33.1082

> <ConfNumber>
1

> <Ionization pH>
7.5

> <IonizationIndex>
1

> <NumberOfIonizations>
1

> <NumberOfStereoisomers>
1

> <NumberOfTautomers>
4

> <OBJECTID>
9223375554436333581

> <PUBCHEM_ATOM_DEF_STEREO_COUNT>
0

> <PUBCHEM_ATOM_UDEF_STEREO_COUNT>
0

> <PUBCHEM_BONDANNOTATIONS>
1  10  8
1  11  8
10  13  8
11  16  8
12  17  8
12  18  8
13  14  8
15  20  8
16  19  8
17  22  8
18  21  8
19  20  8
21  23  8
22  23  8
9  11  8
9  14  8
9  15  8

> <PUBCHEM_BOND_DEF_STEREO_COUNT>
0

> <PUBCHEM_BOND_UDEF_STEREO_COUNT>
0

> <PUBCHEM_CACTVS_COMPLEXITY>
506

> <PUBCHEM_CACTVS_HBOND_ACCEPTOR>
8

> <PUBCHEM_CACTVS_HBOND_DONOR>
6

> <PUBCHEM_CACTVS_ROTATABLE_BOND>
1

> <PUBCHEM_CACTVS_SUBSKEYS>
AAADccBwPAAAAAAAAAAAAAAAAAAAAAAAAAAwYIAAAAAAAACBQAAAGgAACAAADASAmAAwBoAABgCIAqBSAAICCAAkIAAAiAFGiMgNJzaGNRqCeWGl4BUJuQfI7LzOIAABCAAIQABAAAIQABCAAAAAAAAAAA==

> <PUBCHEM_CACTVS_TAUTO_COUNT>
-1

> <PUBCHEM_CACTVS_TPSA>
148

> <PUBCHEM_COMPONENT_COUNT>
1

> <PUBCHEM_COMPOUND_CANONICALIZED>
1

> <PUBCHEM_COMPOUND_CID>
5281672

> <PUBCHEM_COORDINATE_TYPE>
1
5
255

> <PUBCHEM_EXACT_MASS>
318.03756727

> <PUBCHEM_HEAVY_ATOM_COUNT>
23

> <PUBCHEM_ISOTOPIC_ATOM_COUNT>
0

> <PUBCHEM_IUPAC_CAS_NAME>
3,5,7-trihydroxy-2-(3,4,5-trihydroxyphenyl)-1-benzopyran-4-one

> <PUBCHEM_IUPAC_INCHI>
InChI=1S/C15H10O8/c16-6-3-7(17)11-10(4-6)23-15(14(22)13(11)21)5-1-8(18)12(20)9(19)2-5/h1-4,16-20,22H

> <PUBCHEM_IUPAC_INCHIKEY>
IKMDFBPHZNJCSN-UHFFFAOYSA-N

> <PUBCHEM_IUPAC_NAME>
3,5,7-trihydroxy-2-(3,4,5-trihydroxyphenyl)chromen-4-one

> <PUBCHEM_IUPAC_NAME_MARKUP>
3,5,7-trihydroxy-2-(3,4,5-trihydroxyphenyl)chromen-4-one

> <PUBCHEM_IUPAC_OPENEYE_NAME>
3,5,7-trihydroxy-2-(3,4,5-trihydroxyphenyl)chromen-4-one

> <PUBCHEM_IUPAC_SYSTEMATIC_NAME>
3,5,7-tris(oxidanyl)-2-[3,4,5-tris(oxidanyl)phenyl]chromen-4-one

> <PUBCHEM_IUPAC_TRADITIONAL_NAME>
3,5,7-trihydroxy-2-(3,4,5-trihydroxyphenyl)chromone

> <PUBCHEM_MOLECULAR_FORMULA>
C15H10O8

> <PUBCHEM_MOLECULAR_WEIGHT>
318.23

> <PUBCHEM_MONOISOTOPIC_WEIGHT>
318.03756727

> <PUBCHEM_OPENEYE_CAN_SMILES>
C1=C(C=C(C(=C1O)O)O)C2=C(C(=O)C3=C(C=C(C=C3O2)O)O)O

> <PUBCHEM_OPENEYE_ISO_SMILES>
C1=C(C=C(C(=C1O)O)O)C2=C(C(=O)C3=C(C=C(C=C3O2)O)O)O

> <PUBCHEM_TOTAL_CHARGE>
0

> <PUBCHEM_XLOGP3>
1.2

> <RelativeEnergy>
0

> <StereoisomerIndex>
1

> <TautomerIndex>
2

> <LibDock Warning>
no hit found

> <ErrorText>
LibDock failed

$$$$
5281672
  SciTegic09112317153D

 32 34  0  0  0  0            999 V2000
    0.9790   -0.6110    0.0080 O   0  0  0  1  0  0
   -1.2750    2.0660    0.3600 O   0  5  0  1  0  0
    3.5920    3.4000    1.2380 O   0  0  0  1  0  0
    0.9800    3.4550    0.9400 O   0  0  0  1  0  0
    5.5960   -0.7250    0.5140 O   0  0  0  1  0  0
   -4.8930   -0.7400    0.8750 O   0  0  0  1  0  0
   -2.7130   -3.1230   -2.5740 O   0  0  0  1  0  0
   -4.9710   -2.5860   -1.1350 O   0  0  0  1  0  0
    2.1890    1.4750    0.6270 C   0  0  0  1  0  0
   -0.1680    0.1090    0.0390 C   0  0  0  1  0  0
    2.1350    0.0270    0.2870 C   0  0  0  1  0  0
   -1.4450   -0.6090   -0.2730 C   0  0  0  1  0  0
   -0.2170    1.4320    0.3380 C   0  0  0  1  0  0
    1.0270    2.1560    0.6470 C   0  0  0  1  0  0
    3.5020    2.1070    0.9280 C   0  0  0  1  0  0
    3.2770   -0.6900    0.2560 C   0  0  0  1  0  0
   -1.4840   -1.5590   -1.3080 C   0  0  0  1  0  0
   -2.6070   -0.3320    0.4690 C   0  0  0  1  0  0
    4.5820   -0.0680    0.5490 C   0  0  0  1  0  0
    4.6270    1.3650    0.8870 C   0  0  0  1  0  0
   -3.8070   -1.0040    0.1780 C   0  0  0  1  0  0
   -2.6820   -2.2330   -1.6030 C   0  0  0  1  0  0
   -3.8460   -1.9550   -0.8590 C   0  0  0  1  0  0
    3.2400   -1.7400    0.0100 H   0  0  0  1  0  0
   -0.5960   -1.7770   -1.8830 H   0  0  0  1  0  0
   -2.5840    0.3960    1.2660 H   0  0  0  1  0  0
    5.5800    1.8240    1.1060 H   0  0  0  1  0  0
    4.4590    3.7790    1.4300 H   0  0  0  1  0  0
   -5.7130   -1.2070    0.6680 H   0  0  0  1  0  0
   -1.9080   -3.3030   -3.0760 H   0  0  0  1  0  0
   -4.9840   -3.2380   -1.8480 H   0  0  0  1  0  0
    0.1270    3.9080    0.9400 H   0  0  0  1  0  0
  1 10  1  0
  1 11  1  0
  2 13  1  0
  3 15  1  0
  3 28  1  0
  4 14  1  0
  4 32  1  0
  5 19  2  0
  6 21  1  0
  6 29  1  0
  7 22  1  0
  7 30  1  0
  8 23  1  0
  8 31  1  0
  9 11  1  0
  9 14  2  0
  9 15  1  0
 10 12  1  0
 10 13  2  0
 11 16  2  0
 12 17  2  0
 12 18  1  0
 13 14  1  0
 15 20  2  0
 16 19  1  0
 16 24  1  0
 17 22  1  0
 17 25  1  0
 18 21  2  0
 18 26  1  0
 19 20  1  0
 20 27  1  0
 21 23  1  0
 22 23  2  0
M  CHG  1   2  -1
M  END
> <Name>
5281672

> <AbsoluteEnergy>
33.3757

> <ConfNumber>
1

> <Ionization pH>
7.5

> <IonizationIndex>
1

> <NumberOfIonizations>
1

> <NumberOfStereoisomers>
1

> <NumberOfTautomers>
4

> <OBJECTID>
9223375558731300877

> <PUBCHEM_ATOM_DEF_STEREO_COUNT>
0

> <PUBCHEM_ATOM_UDEF_STEREO_COUNT>
0

> <PUBCHEM_BONDANNOTATIONS>
1  10  8
1  11  8
10  13  8
11  16  8
12  17  8
12  18  8
13  14  8
15  20  8
16  19  8
17  22  8
18  21  8
19  20  8
21  23  8
22  23  8
9  11  8
9  14  8
9  15  8

> <PUBCHEM_BOND_DEF_STEREO_COUNT>
0

> <PUBCHEM_BOND_UDEF_STEREO_COUNT>
0

> <PUBCHEM_CACTVS_COMPLEXITY>
506

> <PUBCHEM_CACTVS_HBOND_ACCEPTOR>
8

> <PUBCHEM_CACTVS_HBOND_DONOR>
6

> <PUBCHEM_CACTVS_ROTATABLE_BOND>
1

> <PUBCHEM_CACTVS_SUBSKEYS>
AAADccBwPAAAAAAAAAAAAAAAAAAAAAAAAAAwYIAAAAAAAACBQAAAGgAACAAADASAmAAwBoAABgCIAqBSAAICCAAkIAAAiAFGiMgNJzaGNRqCeWGl4BUJuQfI7LzOIAABCAAIQABAAAIQABCAAAAAAAAAAA==

> <PUBCHEM_CACTVS_TAUTO_COUNT>
-1

> <PUBCHEM_CACTVS_TPSA>
148

> <PUBCHEM_COMPONENT_COUNT>
1

> <PUBCHEM_COMPOUND_CANONICALIZED>
1

> <PUBCHEM_COMPOUND_CID>
5281672

> <PUBCHEM_COORDINATE_TYPE>
1
5
255

> <PUBCHEM_EXACT_MASS>
318.03756727

> <PUBCHEM_HEAVY_ATOM_COUNT>
23

> <PUBCHEM_ISOTOPIC_ATOM_COUNT>
0

> <PUBCHEM_IUPAC_CAS_NAME>
3,5,7-trihydroxy-2-(3,4,5-trihydroxyphenyl)-1-benzopyran-4-one

> <PUBCHEM_IUPAC_INCHI>
InChI=1S/C15H10O8/c16-6-3-7(17)11-10(4-6)23-15(14(22)13(11)21)5-1-8(18)12(20)9(19)2-5/h1-4,16-20,22H

> <PUBCHEM_IUPAC_INCHIKEY>
IKMDFBPHZNJCSN-UHFFFAOYSA-N

> <PUBCHEM_IUPAC_NAME>
3,5,7-trihydroxy-2-(3,4,5-trihydroxyphenyl)chromen-4-one

> <PUBCHEM_IUPAC_NAME_MARKUP>
3,5,7-trihydroxy-2-(3,4,5-trihydroxyphenyl)chromen-4-one

> <PUBCHEM_IUPAC_OPENEYE_NAME>
3,5,7-trihydroxy-2-(3,4,5-trihydroxyphenyl)chromen-4-one

> <PUBCHEM_IUPAC_SYSTEMATIC_NAME>
3,5,7-tris(oxidanyl)-2-[3,4,5-tris(oxidanyl)phenyl]chromen-4-one

> <PUBCHEM_IUPAC_TRADITIONAL_NAME>
3,5,7-trihydroxy-2-(3,4,5-trihydroxyphenyl)chromone

> <PUBCHEM_MOLECULAR_FORMULA>
C15H10O8

> <PUBCHEM_MOLECULAR_WEIGHT>
318.23

> <PUBCHEM_MONOISOTOPIC_WEIGHT>
318.03756727

> <PUBCHEM_OPENEYE_CAN_SMILES>
C1=C(C=C(C(=C1O)O)O)C2=C(C(=O)C3=C(C=C(C=C3O2)O)O)O

> <PUBCHEM_OPENEYE_ISO_SMILES>
C1=C(C=C(C(=C1O)O)O)C2=C(C(=O)C3=C(C=C(C=C3O2)O)O)O

> <PUBCHEM_TOTAL_CHARGE>
0

> <PUBCHEM_XLOGP3>
1.2

> <RelativeEnergy>
0

> <StereoisomerIndex>
1

> <TautomerIndex>
3

> <LibDock Warning>
no hit found

> <ErrorText>
LibDock failed

$$$$
5281672
  SciTegic09112317153D

 32 34  0  0  0  0            999 V2000
   -0.6310    0.2600   -0.5700 O   0  0  0  1  0  0
    1.8590   -1.0490    1.6110 O   0  5  0  1  0  0
   -0.6170   -4.5230   -1.0410 O   0  0  0  1  0  0
    1.1060   -3.3270    0.6760 O   0  0  0  1  0  0
   -3.6440   -1.8780   -3.5940 O   0  0  0  1  0  0
    1.1190    4.9280   -0.1880 O   0  0  0  1  0  0
    2.1930    2.6920    4.0090 O   0  0  0  1  0  0
    2.0850    4.9290    2.3980 O   0  0  0  1  0  0
   -0.5830   -2.1380   -0.7700 C   0  0  0  1  0  0
    0.3540    0.2450    0.3430 C   0  0  0  1  0  0
   -1.1130   -0.8680   -1.1320 C   0  0  0  1  0  0
    0.7770    1.4130    0.8570 C   0  0  0  1  0  0
    0.9550   -1.0450    0.7710 C   0  0  0  1  0  0
    0.5150   -2.2130    0.2420 C   0  0  0  1  0  0
   -1.1000   -3.3160   -1.3680 C   0  0  0  1  0  0
   -2.1510   -0.7850   -2.0900 C   0  0  0  1  0  0
    1.2960    1.4850    2.2390 C   0  0  0  1  0  0
    0.7360    2.6510    0.0520 C   0  0  0  1  0  0
   -2.6620   -1.9590   -2.6870 C   0  0  0  1  0  0
   -2.1370   -3.2230   -2.3270 C   0  0  0  1  0  0
    1.1660    3.8250    0.5560 C   0  0  0  1  0  0
    1.7300    2.6500    2.7600 C   0  0  0  1  0  0
    1.6900    3.8820    1.9400 C   0  0  0  1  0  0
   -2.5550    0.1790   -2.3670 H   0  0  0  1  0  0
    1.3300    0.5900    2.8470 H   0  0  0  1  0  0
    0.3530    2.6200   -0.9590 H   0  0  0  1  0  0
   -2.5310   -4.1190   -2.7840 H   0  0  0  1  0  0
   -0.2700   -4.6700   -0.1520 H   0  0  0  1  0  0
   -3.9870   -2.6870   -3.9970 H   0  0  0  1  0  0
    1.4320    5.7620    0.1830 H   0  0  0  1  0  0
    2.2130    1.8800    4.5310 H   0  0  0  1  0  0
    1.8090   -3.2650    1.3350 H   0  0  0  1  0  0
  1 10  1  0
  1 11  1  0
  2 13  1  0
  3 15  1  0
  3 28  1  0
  4 14  1  0
  4 32  1  0
  5 19  1  0
  5 29  1  0
  6 21  1  0
  6 30  1  0
  7 22  1  0
  7 31  1  0
  8 23  2  0
  9 11  2  0
  9 14  1  0
  9 15  1  0
 10 12  2  0
 10 13  1  0
 11 16  1  0
 12 17  1  0
 12 18  1  0
 13 14  2  0
 15 20  2  0
 16 19  2  0
 16 24  1  0
 17 22  2  0
 17 25  1  0
 18 21  2  0
 18 26  1  0
 19 20  1  0
 20 27  1  0
 21 23  1  0
 22 23  1  0
M  CHG  1   2  -1
M  END
> <Name>
5281672

> <AbsoluteEnergy>
34.6628

> <ConfNumber>
1

> <Ionization pH>
7.5

> <IonizationIndex>
1

> <NumberOfIonizations>
1

> <NumberOfStereoisomers>
1

> <NumberOfTautomers>
4

> <OBJECTID>
9223375563026268173

> <PUBCHEM_ATOM_DEF_STEREO_COUNT>
0

> <PUBCHEM_ATOM_UDEF_STEREO_COUNT>
0

> <PUBCHEM_BONDANNOTATIONS>
1  10  8
1  11  8
10  13  8
11  16  8
12  17  8
12  18  8
13  14  8
15  20  8
16  19  8
17  22  8
18  21  8
19  20  8
21  23  8
22  23  8
9  11  8
9  14  8
9  15  8

> <PUBCHEM_BOND_DEF_STEREO_COUNT>
0

> <PUBCHEM_BOND_UDEF_STEREO_COUNT>
0

> <PUBCHEM_CACTVS_COMPLEXITY>
506

> <PUBCHEM_CACTVS_HBOND_ACCEPTOR>
8

> <PUBCHEM_CACTVS_HBOND_DONOR>
6

> <PUBCHEM_CACTVS_ROTATABLE_BOND>
1

> <PUBCHEM_CACTVS_SUBSKEYS>
AAADccBwPAAAAAAAAAAAAAAAAAAAAAAAAAAwYIAAAAAAAACBQAAAGgAACAAADASAmAAwBoAABgCIAqBSAAICCAAkIAAAiAFGiMgNJzaGNRqCeWGl4BUJuQfI7LzOIAABCAAIQABAAAIQABCAAAAAAAAAAA==

> <PUBCHEM_CACTVS_TAUTO_COUNT>
-1

> <PUBCHEM_CACTVS_TPSA>
148

> <PUBCHEM_COMPONENT_COUNT>
1

> <PUBCHEM_COMPOUND_CANONICALIZED>
1

> <PUBCHEM_COMPOUND_CID>
5281672

> <PUBCHEM_COORDINATE_TYPE>
1
5
255

> <PUBCHEM_EXACT_MASS>
318.03756727

> <PUBCHEM_HEAVY_ATOM_COUNT>
23

> <PUBCHEM_ISOTOPIC_ATOM_COUNT>
0

> <PUBCHEM_IUPAC_CAS_NAME>
3,5,7-trihydroxy-2-(3,4,5-trihydroxyphenyl)-1-benzopyran-4-one

> <PUBCHEM_IUPAC_INCHI>
InChI=1S/C15H10O8/c16-6-3-7(17)11-10(4-6)23-15(14(22)13(11)21)5-1-8(18)12(20)9(19)2-5/h1-4,16-20,22H

> <PUBCHEM_IUPAC_INCHIKEY>
IKMDFBPHZNJCSN-UHFFFAOYSA-N

> <PUBCHEM_IUPAC_NAME>
3,5,7-trihydroxy-2-(3,4,5-trihydroxyphenyl)chromen-4-one

> <PUBCHEM_IUPAC_NAME_MARKUP>
3,5,7-trihydroxy-2-(3,4,5-trihydroxyphenyl)chromen-4-one

> <PUBCHEM_IUPAC_OPENEYE_NAME>
3,5,7-trihydroxy-2-(3,4,5-trihydroxyphenyl)chromen-4-one

> <PUBCHEM_IUPAC_SYSTEMATIC_NAME>
3,5,7-tris(oxidanyl)-2-[3,4,5-tris(oxidanyl)phenyl]chromen-4-one

> <PUBCHEM_IUPAC_TRADITIONAL_NAME>
3,5,7-trihydroxy-2-(3,4,5-trihydroxyphenyl)chromone

> <PUBCHEM_MOLECULAR_FORMULA>
C15H10O8

> <PUBCHEM_MOLECULAR_WEIGHT>
318.23

> <PUBCHEM_MONOISOTOPIC_WEIGHT>
318.03756727

> <PUBCHEM_OPENEYE_CAN_SMILES>
C1=C(C=C(C(=C1O)O)O)C2=C(C(=O)C3=C(C=C(C=C3O2)O)O)O

> <PUBCHEM_OPENEYE_ISO_SMILES>
C1=C(C=C(C(=C1O)O)O)C2=C(C(=O)C3=C(C=C(C=C3O2)O)O)O

> <PUBCHEM_TOTAL_CHARGE>
0

> <PUBCHEM_XLOGP3>
1.2

> <RelativeEnergy>
0

> <StereoisomerIndex>
1

> <TautomerIndex>
4

> <LibDock Warning>
no hit found

> <ErrorText>
LibDock failed

$$$$
5281675
  SciTegic09112317153D

 52 55  0  0  0  0            999 V2000
   -2.2140    1.2010    0.7790 O   0  0  0  1  0  0
   -1.5860   -0.4790   -2.4590 O   0  0  0  1  0  0
   -3.1790    2.0900   -3.0150 O   0  0  0  1  0  0
   -0.7810    3.3100   -0.7000 O   0  0  0  1  0  0
    0.8210   -1.0140    0.5620 O   0  0  0  1  0  0
   -4.9200    3.3450   -0.2830 O   0  0  0  1  0  0
   -3.9640   -1.1060    0.3110 O   0  0  0  1  0  0
   -1.6280   -4.8720    2.0490 O   0  0  0  1  0  0
    1.1100   -4.7030    2.1370 O   0  0  0  1  0  0
    4.2770    2.4360   -0.8130 O   0  0  0  1  0  0
    6.7130    1.4150   -0.0980 O   0  0  0  1  0  0
   -2.2160    0.4210   -1.5610 C   0  0  2  1  0  0
   -2.0950    1.8580   -2.1360 C   0  0  2  1  0  0
   -1.5660    0.3320   -0.1560 C   0  0  2  1  0  0
   -2.1100    2.9250   -1.0100 C   0  0  1  1  0  0
   -2.7990    2.4050    0.2740 C   0  0  1  1  0  0
   -1.5760   -1.0220    0.4200 C   0  0  0  1  0  0
   -4.2890    2.1280    0.0500 C   0  0  0  1  0  0
   -0.3540   -1.6550    0.7620 C   0  0  0  1  0  0
   -2.8040   -1.6960    0.6310 C   0  0  0  1  0  0
   -0.3670   -2.9650    1.3140 C   0  0  0  1  0  0
   -2.8120   -2.9980    1.1840 C   0  0  0  1  0  0
   -1.5970   -3.6380    1.5270 C   0  0  0  1  0  0
    0.9320   -3.6040    1.6640 C   0  0  0  1  0  0
    2.0250   -1.5450    0.8610 C   0  0  0  1  0  0
    2.1330   -2.7840    1.3910 C   0  0  0  1  0  0
    3.2700   -0.7580    0.6060 C   0  0  0  1  0  0
    3.1900    0.5080   -0.0020 C   0  0  0  1  0  0
    4.5200   -1.2810    0.9730 C   0  0  0  1  0  0
    4.3580    1.2510   -0.2430 C   0  0  0  1  0  0
    5.6900   -0.5400    0.7320 C   0  0  0  1  0  0
    5.6120    0.7260    0.1250 C   0  0  0  1  0  0
   -3.2620    0.1110   -1.4880 H   0  0  0  1  0  0
   -1.1930    1.9720   -2.7440 H   0  0  0  1  0  0
   -0.5270    0.6590   -0.2220 H   0  0  0  1  0  0
   -2.5980    3.8440   -1.3430 H   0  0  0  1  0  0
   -2.7230    3.1470    1.0710 H   0  0  0  1  0  0
   -4.4320    1.4350   -0.7790 H   0  0  0  1  0  0
   -4.7510    1.7460    0.9610 H   0  0  0  1  0  0
   -3.7530   -3.5090    1.3430 H   0  0  0  1  0  0
    3.1050   -3.2000    1.6260 H   0  0  0  1  0  0
    2.2300    0.9160   -0.2860 H   0  0  0  1  0  0
    4.5910   -2.2550    1.4410 H   0  0  0  1  0  0
    6.6500   -0.9460    1.0150 H   0  0  0  1  0  0
   -1.9600   -1.3580   -2.2940 H   0  0  0  1  0  0
   -3.0340    1.5410   -3.8000 H   0  0  0  1  0  0
   -0.8370    4.0970   -0.1340 H   0  0  0  1  0  0
   -5.8610    3.1510   -0.4200 H   0  0  0  1  0  0
   -4.0090   -0.1410    0.2760 H   0  0  0  1  0  0
   -2.4810   -5.3090    2.1830 H   0  0  0  1  0  0
    5.0850    2.9410   -0.9760 H   0  0  0  1  0  0
    7.5660    1.0420    0.1600 H   0  0  0  1  0  0
  1 14  1  0
  1 16  1  0
  2 12  1  0
  2 45  1  0
  3 13  1  0
  3 46  1  0
  4 15  1  0
  4 47  1  0
  5 19  1  0
  5 25  1  0
  6 18  1  0
  6 48  1  0
  7 20  1  0
  7 49  1  0
  8 23  1  0
  8 50  1  0
  9 24  2  0
 10 30  1  0
 10 51  1  0
 11 32  1  0
 11 52  1  0
 12 13  1  0
 12 14  1  0
 12 33  1  0
 13 15  1  0
 13 34  1  0
 14 17  1  0
 14 35  1  0
 15 16  1  0
 15 36  1  0
 16 18  1  0
 16 37  1  0
 17 19  2  0
 17 20  1  0
 18 38  1  0
 18 39  1  0
 19 21  1  0
 20 22  2  0
 21 23  2  0
 21 24  1  0
 22 23  1  0
 22 40  1  0
 24 26  1  0
 25 26  2  0
 25 27  1  0
 26 41  1  0
 27 28  2  0
 27 29  1  0
 28 30  1  0
 28 42  1  0
 29 31  2  0
 29 43  1  0
 30 32  2  0
 31 32  1  0
 31 44  1  0
M  END
> <Name>
5281675

> <AbsoluteEnergy>
47.4532

> <ConfNumber>
1

> <Ionization pH>
7.49_PPPP

> <IonizationIndex>
1

> <NumberOfIonizations>
2

> <NumberOfStereoisomers>
1

> <NumberOfTautomers>
4

> <OBJECTID>
9223375567321235469

> <PUBCHEM_ATOM_DEF_STEREO_COUNT>
5

> <PUBCHEM_ATOM_UDEF_STEREO_COUNT>
0

> <PUBCHEM_BONDANNOTATIONS>
14  35  5
16  18  6
17  19  8
17  20  8
19  21  8
12  2  5
20  22  8
21  23  8
21  24  8
22  23  8
24  26  8
25  26  8
27  28  8
27  29  8
28  30  8
29  31  8
13  3  6
30  32  8
31  32  8
15  4  5
5  19  8
5  25  8

> <PUBCHEM_BOND_DEF_STEREO_COUNT>
0

> <PUBCHEM_BOND_UDEF_STEREO_COUNT>
0

> <PUBCHEM_CACTVS_COMPLEXITY>
729

> <PUBCHEM_CACTVS_HBOND_ACCEPTOR>
11

> <PUBCHEM_CACTVS_HBOND_DONOR>
8

> <PUBCHEM_CACTVS_ROTATABLE_BOND>
3

> <PUBCHEM_CACTVS_SUBSKEYS>
AAADceB4PAAAAAAAAAAAAAAAAAAAAAAAAAA0YIEAAAAAAACBQAAAGgAACAAADBSgmAIwBoAABgCIAqBSAAACCAAkIAAIiAEGiMgNNzaGNRqCeWGl4BULuQfI7PzOIAADCAAIQABAAAYQABCAAAAAAAAAAA==

> <PUBCHEM_CACTVS_TAUTO_COUNT>
162

> <PUBCHEM_CACTVS_TPSA>
197

> <PUBCHEM_COMPONENT_COUNT>
1

> <PUBCHEM_COMPOUND_CANONICALIZED>
1

> <PUBCHEM_COMPOUND_CID>
5281675

> <PUBCHEM_COORDINATE_TYPE>
1
5
255

> <PUBCHEM_EXACT_MASS>
448.10056145

> <PUBCHEM_HEAVY_ATOM_COUNT>
32

> <PUBCHEM_ISOTOPIC_ATOM_COUNT>
0

> <PUBCHEM_IUPAC_CAS_NAME>
2-(3,4-dihydroxyphenyl)-5,7-dihydroxy-8-[(2S,3R,4R,5S,6R)-3,4,5-trihydroxy-6-(hydroxymethyl)-2-oxanyl]-1-benzopyran-4-one

> <PUBCHEM_IUPAC_INCHI>
InChI=1S/C21H20O11/c22-6-14-17(28)18(29)19(30)21(32-14)16-11(26)4-10(25)15-12(27)5-13(31-20(15)16)7-1-2-8(23)9(24)3-7/h1-5,14,17-19,21-26,28-30H,6H2/t14-,17-,18+,19-,21+/m1/s1

> <PUBCHEM_IUPAC_INCHIKEY>
PLAPMLGJVGLZOV-VPRICQMDSA-N

> <PUBCHEM_IUPAC_NAME>
2-(3,4-dihydroxyphenyl)-5,7-dihydroxy-8-[(2S,3R,4R,5S,6R)-3,4,5-trihydroxy-6-(hydroxymethyl)oxan-2-yl]chromen-4-one

> <PUBCHEM_IUPAC_NAME_MARKUP>
2-(3,4-dihydroxyphenyl)-5,7-dihydroxy-8-[(2<I>S</I>,3<I>R</I>,4<I>R</I>,5<I>S</I>,6<I>R</I>)-3,4,5-trihydroxy-6-(hydroxymethyl)oxan-2-yl]chromen-4-one

> <PUBCHEM_IUPAC_OPENEYE_NAME>
2-(3,4-dihydroxyphenyl)-5,7-dihydroxy-8-[(2S,3R,4R,5S,6R)-3,4,5-trihydroxy-6-(hydroxymethyl)tetrahydropyran-2-yl]chromen-4-one

> <PUBCHEM_IUPAC_SYSTEMATIC_NAME>
2-[3,4-bis(oxidanyl)phenyl]-8-[(2S,3R,4R,5S,6R)-6-(hydroxymethyl)-3,4,5-tris(oxidanyl)oxan-2-yl]-5,7-bis(oxidanyl)chromen-4-one

> <PUBCHEM_IUPAC_TRADITIONAL_NAME>
2-(3,4-dihydroxyphenyl)-5,7-dihydroxy-8-[(2S,3R,4R,5S,6R)-3,4,5-trihydroxy-6-methylol-tetrahydropyran-2-yl]chromone

> <PUBCHEM_MOLECULAR_FORMULA>
C21H20O11

> <PUBCHEM_MOLECULAR_WEIGHT>
448.4

> <PUBCHEM_MONOISOTOPIC_WEIGHT>
448.10056145

> <PUBCHEM_OPENEYE_CAN_SMILES>
C1=CC(=C(C=C1C2=CC(=O)C3=C(O2)C(=C(C=C3O)O)C4C(C(C(C(O4)CO)O)O)O)O)O

> <PUBCHEM_OPENEYE_ISO_SMILES>
C1=CC(=C(C=C1C2=CC(=O)C3=C(O2)C(=C(C=C3O)O)[C@H]4[C@@H]([C@H]([C@@H]([C@H](O4)CO)O)O)O)O)O

> <PUBCHEM_TOTAL_CHARGE>
0

> <PUBCHEM_XLOGP3_AA>
-0.2

> <RelativeEnergy>
0

> <StereoisomerIndex>
1

> <TautomerIndex>
1

> <LibDock Warning>
no hit found

> <ErrorText>
LibDock failed

$$$$
5281675
  SciTegic09112317153D

 52 55  0  0  0  0            999 V2000
   -1.1310    0.9130   -0.2400 O   0  0  0  1  0  0
   -3.2860   -1.3300    1.6760 O   0  0  0  1  0  0
   -2.2730    0.4820    3.7150 O   0  0  0  1  0  0
   -1.6410    3.1080    2.6290 O   0  0  0  1  0  0
    0.4430   -0.7500   -0.6700 O   0  0  0  1  0  0
    0.0610    2.8520   -1.3540 O   0  0  0  1  0  0
   -4.1970   -1.7380   -1.1460 O   0  0  0  1  0  0
   -1.1470   -4.4890   -3.2930 O   0  0  0  1  0  0
    1.4600   -3.9940   -3.0930 O   0  0  0  1  0  0
    3.1880    2.8760    1.5300 O   0  0  0  1  0  0
    5.8120    2.1940    1.1600 O   0  0  0  1  0  0
   -2.2090   -0.4330    1.4670 C   0  0  2  1  0  0
   -2.4030    0.8250    2.3440 C   0  0  2  1  0  0
   -2.1410   -0.0680   -0.0360 C   0  0  2  1  0  0
   -1.3510    1.8900    1.9670 C   0  0  1  1  0  0
   -1.3340    2.1450    0.4430 C   0  0  1  1  0  0
   -1.8190   -1.2510   -0.9150 C   0  0  0  1  0  0
   -0.2020    3.0850    0.0110 C   0  0  0  1  0  0
   -0.5260   -1.5420   -1.1930 C   0  0  0  1  0  0
   -2.9420   -2.0630   -1.4440 C   0  0  0  1  0  0
   -0.2110   -2.7090   -2.0600 C   0  0  0  1  0  0
   -2.7040   -3.1300   -2.2310 C   0  0  0  1  0  0
   -1.3300   -3.5240   -2.5870 C   0  0  0  1  0  0
    1.0830   -2.9710   -2.3280 C   0  0  0  1  0  0
    1.7300   -1.0470   -0.9630 C   0  0  0  1  0  0
    2.0960   -2.0860   -1.7440 C   0  0  0  1  0  0
    2.8130   -0.1870   -0.3990 C   0  0  0  1  0  0
    2.4860    0.9770    0.3220 C   0  0  0  1  0  0
    4.1610   -0.5340   -0.5900 C   0  0  0  1  0  0
    3.5020    1.7880    0.8560 C   0  0  0  1  0  0
    5.1770    0.2770   -0.0580 C   0  0  0  1  0  0
    4.8530    1.4380    0.6640 C   0  0  0  1  0  0
   -1.2930   -0.9490    1.7580 H   0  0  0  1  0  0
   -3.4070    1.2270    2.1940 H   0  0  0  1  0  0
   -3.0880    0.3620   -0.3670 H   0  0  0  1  0  0
   -0.3600    1.5710    2.2940 H   0  0  0  1  0  0
   -2.2870    2.5560    0.1090 H   0  0  0  1  0  0
   -0.5050    4.1250    0.1240 H   0  0  0  1  0  0
    0.7100    2.8820    0.5720 H   0  0  0  1  0  0
   -3.5340   -3.7100   -2.6090 H   0  0  0  1  0  0
    3.1380   -2.2880   -1.9560 H   0  0  0  1  0  0
    1.4520    1.2490    0.4720 H   0  0  0  1  0  0
    4.4230   -1.4260   -1.1430 H   0  0  0  1  0  0
    6.2130    0.0040   -0.2050 H   0  0  0  1  0  0
   -3.0730   -2.1510    1.2040 H   0  0  0  1  0  0
   -2.9490   -0.1850    3.9070 H   0  0  0  1  0  0
   -0.9590    3.7460    2.3640 H   0  0  0  1  0  0
    0.7730    3.4560   -1.6150 H   0  0  0  1  0  0
   -4.3760   -0.8990   -0.7000 H   0  0  0  1  0  0
    3.8940    3.4280    1.8930 H   0  0  0  1  0  0
    6.7330    1.9410    1.0210 H   0  0  0  1  0  0
    2.3990   -4.1410   -3.2570 H   0  0  0  1  0  0
  1 14  1  0
  1 16  1  0
  2 12  1  0
  2 45  1  0
  3 13  1  0
  3 46  1  0
  4 15  1  0
  4 47  1  0
  5 19  1  0
  5 25  1  0
  6 18  1  0
  6 48  1  0
  7 20  1  0
  7 49  1  0
  8 23  2  0
  9 24  1  0
  9 52  1  0
 10 30  1  0
 10 50  1  0
 11 32  1  0
 11 51  1  0
 12 13  1  0
 12 14  1  0
 12 33  1  0
 13 15  1  0
 13 34  1  0
 14 17  1  0
 14 35  1  0
 15 16  1  0
 15 36  1  0
 16 18  1  0
 16 37  1  0
 17 19  2  0
 17 20  1  0
 18 38  1  0
 18 39  1  0
 19 21  1  0
 20 22  2  0
 21 23  1  0
 21 24  2  0
 22 23  1  0
 22 40  1  0
 24 26  1  0
 25 26  2  0
 25 27  1  0
 26 41  1  0
 27 28  2  0
 27 29  1  0
 28 30  1  0
 28 42  1  0
 29 31  2  0
 29 43  1  0
 30 32  2  0
 31 32  1  0
 31 44  1  0
M  END
> <Name>
5281675

> <AbsoluteEnergy>
42.0161

> <ConfNumber>
1

> <Ionization pH>
7.49_PPPP

> <IonizationIndex>
1

> <NumberOfIonizations>
2

> <NumberOfStereoisomers>
1

> <NumberOfTautomers>
4

> <OBJECTID>
9223375571616202765

> <PUBCHEM_ATOM_DEF_STEREO_COUNT>
5

> <PUBCHEM_ATOM_UDEF_STEREO_COUNT>
0

> <PUBCHEM_BONDANNOTATIONS>
14  35  5
16  18  6
17  19  8
17  20  8
19  21  8
12  2  5
20  22  8
21  23  8
21  24  8
22  23  8
24  26  8
25  26  8
27  28  8
27  29  8
28  30  8
29  31  8
13  3  6
30  32  8
31  32  8
15  4  5
5  19  8
5  25  8

> <PUBCHEM_BOND_DEF_STEREO_COUNT>
0

> <PUBCHEM_BOND_UDEF_STEREO_COUNT>
0

> <PUBCHEM_CACTVS_COMPLEXITY>
729

> <PUBCHEM_CACTVS_HBOND_ACCEPTOR>
11

> <PUBCHEM_CACTVS_HBOND_DONOR>
8

> <PUBCHEM_CACTVS_ROTATABLE_BOND>
3

> <PUBCHEM_CACTVS_SUBSKEYS>
AAADceB4PAAAAAAAAAAAAAAAAAAAAAAAAAA0YIEAAAAAAACBQAAAGgAACAAADBSgmAIwBoAABgCIAqBSAAACCAAkIAAIiAEGiMgNNzaGNRqCeWGl4BULuQfI7PzOIAADCAAIQABAAAYQABCAAAAAAAAAAA==

> <PUBCHEM_CACTVS_TAUTO_COUNT>
162

> <PUBCHEM_CACTVS_TPSA>
197

> <PUBCHEM_COMPONENT_COUNT>
1

> <PUBCHEM_COMPOUND_CANONICALIZED>
1

> <PUBCHEM_COMPOUND_CID>
5281675

> <PUBCHEM_COORDINATE_TYPE>
1
5
255

> <PUBCHEM_EXACT_MASS>
448.10056145

> <PUBCHEM_HEAVY_ATOM_COUNT>
32

> <PUBCHEM_ISOTOPIC_ATOM_COUNT>
0

> <PUBCHEM_IUPAC_CAS_NAME>
2-(3,4-dihydroxyphenyl)-5,7-dihydroxy-8-[(2S,3R,4R,5S,6R)-3,4,5-trihydroxy-6-(hydroxymethyl)-2-oxanyl]-1-benzopyran-4-one

> <PUBCHEM_IUPAC_INCHI>
InChI=1S/C21H20O11/c22-6-14-17(28)18(29)19(30)21(32-14)16-11(26)4-10(25)15-12(27)5-13(31-20(15)16)7-1-2-8(23)9(24)3-7/h1-5,14,17-19,21-26,28-30H,6H2/t14-,17-,18+,19-,21+/m1/s1

> <PUBCHEM_IUPAC_INCHIKEY>
PLAPMLGJVGLZOV-VPRICQMDSA-N

> <PUBCHEM_IUPAC_NAME>
2-(3,4-dihydroxyphenyl)-5,7-dihydroxy-8-[(2S,3R,4R,5S,6R)-3,4,5-trihydroxy-6-(hydroxymethyl)oxan-2-yl]chromen-4-one

> <PUBCHEM_IUPAC_NAME_MARKUP>
2-(3,4-dihydroxyphenyl)-5,7-dihydroxy-8-[(2<I>S</I>,3<I>R</I>,4<I>R</I>,5<I>S</I>,6<I>R</I>)-3,4,5-trihydroxy-6-(hydroxymethyl)oxan-2-yl]chromen-4-one

> <PUBCHEM_IUPAC_OPENEYE_NAME>
2-(3,4-dihydroxyphenyl)-5,7-dihydroxy-8-[(2S,3R,4R,5S,6R)-3,4,5-trihydroxy-6-(hydroxymethyl)tetrahydropyran-2-yl]chromen-4-one

> <PUBCHEM_IUPAC_SYSTEMATIC_NAME>
2-[3,4-bis(oxidanyl)phenyl]-8-[(2S,3R,4R,5S,6R)-6-(hydroxymethyl)-3,4,5-tris(oxidanyl)oxan-2-yl]-5,7-bis(oxidanyl)chromen-4-one

> <PUBCHEM_IUPAC_TRADITIONAL_NAME>
2-(3,4-dihydroxyphenyl)-5,7-dihydroxy-8-[(2S,3R,4R,5S,6R)-3,4,5-trihydroxy-6-methylol-tetrahydropyran-2-yl]chromone

> <PUBCHEM_MOLECULAR_FORMULA>
C21H20O11

> <PUBCHEM_MOLECULAR_WEIGHT>
448.4

> <PUBCHEM_MONOISOTOPIC_WEIGHT>
448.10056145

> <PUBCHEM_OPENEYE_CAN_SMILES>
C1=CC(=C(C=C1C2=CC(=O)C3=C(O2)C(=C(C=C3O)O)C4C(C(C(C(O4)CO)O)O)O)O)O

> <PUBCHEM_OPENEYE_ISO_SMILES>
C1=CC(=C(C=C1C2=CC(=O)C3=C(O2)C(=C(C=C3O)O)[C@H]4[C@@H]([C@H]([C@@H]([C@H](O4)CO)O)O)O)O)O

> <PUBCHEM_TOTAL_CHARGE>
0

> <PUBCHEM_XLOGP3_AA>
-0.2

> <RelativeEnergy>
0

> <StereoisomerIndex>
1

> <TautomerIndex>
2

> <LibDock Warning>
no hit found

> <ErrorText>
LibDock failed

$$$$
5281675
  SciTegic09112317153D

 52 55  0  0  0  0            999 V2000
   -1.8110    1.2770    0.9920 O   0  0  0  1  0  0
   -2.2390    0.8020   -2.6380 O   0  0  0  1  0  0
   -3.4740    3.5230   -1.8870 O   0  0  0  1  0  0
   -0.4320    3.6640   -0.0590 O   0  0  0  1  0  0
    0.6750   -0.8490   -0.1110 O   0  0  0  1  0  0
   -4.1750    3.0600    2.4790 O   0  0  0  1  0  0
   -3.9820   -0.7200   -0.3320 O   0  0  0  1  0  0
   -2.0990   -4.9440    0.0180 O   0  0  0  1  0  0
    0.5310   -5.0150    0.1300 O   0  0  0  1  0  0
    6.5170   -1.4800    1.1840 O   0  0  0  1  0  0
    6.7890    0.9950    0.0530 O   0  0  0  1  0  0
   -2.4860    1.3840   -1.3700 C   0  0  2  1  0  0
   -2.2660    2.9150   -1.4660 C   0  0  2  1  0  0
   -1.5490    0.7550   -0.3130 C   0  0  2  1  0  0
   -1.8430    3.5130   -0.0980 C   0  0  1  1  0  0
   -2.2870    2.6220    1.0890 C   0  0  1  1  0  0
   -1.6440   -0.7500   -0.2240 C   0  0  0  1  0  0
   -3.8140    2.5570    1.2130 C   0  0  0  1  0  0
   -0.5180   -1.4920   -0.1260 C   0  0  0  1  0  0
   -2.9780   -1.3870   -0.2440 C   0  0  0  1  0  0
   -0.6250   -2.9760   -0.0400 C   0  0  0  1  0  0
   -3.0710   -2.8550   -0.1550 C   0  0  0  1  0  0
   -1.9650   -3.6190   -0.0600 C   0  0  0  1  0  0
    0.5180   -3.6850    0.0520 C   0  0  0  1  0  0
    1.7960   -1.5990   -0.0160 C   0  0  0  1  0  0
    1.7870   -2.9470    0.0650 C   0  0  0  1  0  0
    3.1220   -0.9110    0.0040 C   0  0  0  1  0  0
    4.2310   -1.5340    0.6010 C   0  0  0  1  0  0
    3.2630    0.3620   -0.5770 C   0  0  0  1  0  0
    5.4810   -0.8890    0.6220 C   0  0  0  1  0  0
    4.5120    1.0060   -0.5590 C   0  0  0  1  0  0
    5.6220    0.3840    0.0390 C   0  0  0  1  0  0
   -3.5200    1.1430   -1.1110 H   0  0  0  1  0  0
   -1.5250    3.1660   -2.2280 H   0  0  0  1  0  0
   -0.5190    1.0160   -0.5540 H   0  0  0  1  0  0
   -2.2370    4.5230    0.0340 H   0  0  0  1  0  0
   -1.9020    3.0230    2.0290 H   0  0  0  1  0  0
   -4.2890    3.1770    0.4540 H   0  0  0  1  0  0
   -4.1610    1.5260    1.1450 H   0  0  0  1  0  0
   -4.0440   -3.3220   -0.1670 H   0  0  0  1  0  0
    2.7070   -3.5080    0.1390 H   0  0  0  1  0  0
    4.1290   -2.5130    1.0500 H   0  0  0  1  0  0
    2.4170    0.8490   -1.0400 H   0  0  0  1  0  0
    4.6170    1.9850   -1.0070 H   0  0  0  1  0  0
   -2.9430    0.1530   -2.7980 H   0  0  0  1  0  0
   -3.5550    3.3650   -2.8410 H   0  0  0  1  0  0
   -0.2320    4.2820    0.6610 H   0  0  0  1  0  0
   -5.1410    3.0110    2.5420 H   0  0  0  1  0  0
   -1.4070   -5.4650    0.4450 H   0  0  0  1  0  0
    7.3720   -1.0290    1.1910 H   0  0  0  1  0  0
    6.8700    1.8700   -0.3510 H   0  0  0  1  0  0
    1.3770   -5.4770    0.1940 H   0  0  0  1  0  0
  1 14  1  0
  1 16  1  0
  2 12  1  0
  2 45  1  0
  3 13  1  0
  3 46  1  0
  4 15  1  0
  4 47  1  0
  5 19  1  0
  5 25  1  0
  6 18  1  0
  6 48  1  0
  7 20  2  0
  8 23  1  0
  8 49  1  0
  9 24  1  0
  9 52  1  0
 10 30  1  0
 10 50  1  0
 11 32  1  0
 11 51  1  0
 12 13  1  0
 12 14  1  0
 12 33  1  0
 13 15  1  0
 13 34  1  0
 14 17  1  0
 14 35  1  0
 15 16  1  0
 15 36  1  0
 16 18  1  0
 16 37  1  0
 17 19  2  0
 17 20  1  0
 18 38  1  0
 18 39  1  0
 19 21  1  0
 20 22  1  0
 21 23  1  0
 21 24  2  0
 22 23  2  0
 22 40  1  0
 24 26  1  0
 25 26  2  0
 25 27  1  0
 26 41  1  0
 27 28  2  0
 27 29  1  0
 28 30  1  0
 28 42  1  0
 29 31  2  0
 29 43  1  0
 30 32  2  0
 31 32  1  0
 31 44  1  0
M  END
> <Name>
5281675

> <AbsoluteEnergy>
41.6716

> <ConfNumber>
1

> <Ionization pH>
7.49_PPPP

> <IonizationIndex>
1

> <NumberOfIonizations>
2

> <NumberOfStereoisomers>
1

> <NumberOfTautomers>
4

> <OBJECTID>
9223375575911170061

> <PUBCHEM_ATOM_DEF_STEREO_COUNT>
5

> <PUBCHEM_ATOM_UDEF_STEREO_COUNT>
0

> <PUBCHEM_BONDANNOTATIONS>
14  35  5
16  18  6
17  19  8
17  20  8
19  21  8
12  2  5
20  22  8
21  23  8
21  24  8
22  23  8
24  26  8
25  26  8
27  28  8
27  29  8
28  30  8
29  31  8
13  3  6
30  32  8
31  32  8
15  4  5
5  19  8
5  25  8

> <PUBCHEM_BOND_DEF_STEREO_COUNT>
0

> <PUBCHEM_BOND_UDEF_STEREO_COUNT>
0

> <PUBCHEM_CACTVS_COMPLEXITY>
729

> <PUBCHEM_CACTVS_HBOND_ACCEPTOR>
11

> <PUBCHEM_CACTVS_HBOND_DONOR>
8

> <PUBCHEM_CACTVS_ROTATABLE_BOND>
3

> <PUBCHEM_CACTVS_SUBSKEYS>
AAADceB4PAAAAAAAAAAAAAAAAAAAAAAAAAA0YIEAAAAAAACBQAAAGgAACAAADBSgmAIwBoAABgCIAqBSAAACCAAkIAAIiAEGiMgNNzaGNRqCeWGl4BULuQfI7PzOIAADCAAIQABAAAYQABCAAAAAAAAAAA==

> <PUBCHEM_CACTVS_TAUTO_COUNT>
162

> <PUBCHEM_CACTVS_TPSA>
197

> <PUBCHEM_COMPONENT_COUNT>
1

> <PUBCHEM_COMPOUND_CANONICALIZED>
1

> <PUBCHEM_COMPOUND_CID>
5281675

> <PUBCHEM_COORDINATE_TYPE>
1
5
255

> <PUBCHEM_EXACT_MASS>
448.10056145

> <PUBCHEM_HEAVY_ATOM_COUNT>
32

> <PUBCHEM_ISOTOPIC_ATOM_COUNT>
0

> <PUBCHEM_IUPAC_CAS_NAME>
2-(3,4-dihydroxyphenyl)-5,7-dihydroxy-8-[(2S,3R,4R,5S,6R)-3,4,5-trihydroxy-6-(hydroxymethyl)-2-oxanyl]-1-benzopyran-4-one

> <PUBCHEM_IUPAC_INCHI>
InChI=1S/C21H20O11/c22-6-14-17(28)18(29)19(30)21(32-14)16-11(26)4-10(25)15-12(27)5-13(31-20(15)16)7-1-2-8(23)9(24)3-7/h1-5,14,17-19,21-26,28-30H,6H2/t14-,17-,18+,19-,21+/m1/s1

> <PUBCHEM_IUPAC_INCHIKEY>
PLAPMLGJVGLZOV-VPRICQMDSA-N

> <PUBCHEM_IUPAC_NAME>
2-(3,4-dihydroxyphenyl)-5,7-dihydroxy-8-[(2S,3R,4R,5S,6R)-3,4,5-trihydroxy-6-(hydroxymethyl)oxan-2-yl]chromen-4-one

> <PUBCHEM_IUPAC_NAME_MARKUP>
2-(3,4-dihydroxyphenyl)-5,7-dihydroxy-8-[(2<I>S</I>,3<I>R</I>,4<I>R</I>,5<I>S</I>,6<I>R</I>)-3,4,5-trihydroxy-6-(hydroxymethyl)oxan-2-yl]chromen-4-one

> <PUBCHEM_IUPAC_OPENEYE_NAME>
2-(3,4-dihydroxyphenyl)-5,7-dihydroxy-8-[(2S,3R,4R,5S,6R)-3,4,5-trihydroxy-6-(hydroxymethyl)tetrahydropyran-2-yl]chromen-4-one

> <PUBCHEM_IUPAC_SYSTEMATIC_NAME>
2-[3,4-bis(oxidanyl)phenyl]-8-[(2S,3R,4R,5S,6R)-6-(hydroxymethyl)-3,4,5-tris(oxidanyl)oxan-2-yl]-5,7-bis(oxidanyl)chromen-4-one

> <PUBCHEM_IUPAC_TRADITIONAL_NAME>
2-(3,4-dihydroxyphenyl)-5,7-dihydroxy-8-[(2S,3R,4R,5S,6R)-3,4,5-trihydroxy-6-methylol-tetrahydropyran-2-yl]chromone

> <PUBCHEM_MOLECULAR_FORMULA>
C21H20O11

> <PUBCHEM_MOLECULAR_WEIGHT>
448.4

> <PUBCHEM_MONOISOTOPIC_WEIGHT>
448.10056145

> <PUBCHEM_OPENEYE_CAN_SMILES>
C1=CC(=C(C=C1C2=CC(=O)C3=C(O2)C(=C(C=C3O)O)C4C(C(C(C(O4)CO)O)O)O)O)O

> <PUBCHEM_OPENEYE_ISO_SMILES>
C1=CC(=C(C=C1C2=CC(=O)C3=C(O2)C(=C(C=C3O)O)[C@H]4[C@@H]([C@H]([C@@H]([C@H](O4)CO)O)O)O)O)O

> <PUBCHEM_TOTAL_CHARGE>
0

> <PUBCHEM_XLOGP3_AA>
-0.2

> <RelativeEnergy>
0

> <StereoisomerIndex>
1

> <TautomerIndex>
3

> <LibDock Warning>
no hit found

> <ErrorText>
LibDock failed

$$$$
5281675
  SciTegic09112317153D

 52 55  0  0  0  0            999 V2000
    0.3650   -0.9710   -1.2170 O   0  0  0  1  0  0
    1.8850   -3.3460    1.1220 O   0  0  0  1  0  0
   -0.8020   -4.4010    0.7890 O   0  0  0  1  0  0
   -1.9210   -3.7510   -1.8170 O   0  0  0  1  0  0
    0.3090    0.8310    0.3740 O   0  0  0  1  0  0
   -0.9210    0.3500   -2.8150 O   0  0  0  1  0  0
    4.2090   -1.9030   -0.0870 O   0  0  0  1  0  0
    4.5790    2.3840    1.9420 O   0  0  0  1  0  0
    2.3630    3.9470    2.2220 O   0  0  0  1  0  0
   -4.5430    4.3070    1.0510 O   0  0  0  1  0  0
   -5.6980    2.1260   -0.1870 O   0  0  0  1  0  0
    0.8300   -2.6250    0.5060 C   0  0  2  1  0  0
   -0.1310   -3.6180   -0.1870 C   0  0  2  1  0  0
    1.4210   -1.6110   -0.5110 C   0  0  2  1  0  0
   -1.1630   -2.8440   -1.0360 C   0  0  1  1  0  0
   -0.4680   -1.8370   -1.9800 C   0  0  1  1  0  0
    2.2380   -0.5650    0.1280 C   0  0  0  1  0  0
   -1.4630   -0.9470   -2.7320 C   0  0  0  1  0  0
    1.6330    0.6440    0.5560 C   0  0  0  1  0  0
    3.6270   -0.7650    0.3140 C   0  0  0  1  0  0
    2.4230    1.6500    1.1770 C   0  0  0  1  0  0
    4.4110    0.2390    0.9290 C   0  0  0  1  0  0
    3.8150    1.4480    1.3620 C   0  0  0  1  0  0
    1.7680    2.9140    1.6270 C   0  0  0  1  0  0
   -0.3450    1.9450    0.7560 C   0  0  0  1  0  0
    0.4390    3.0270    1.4130 C   0  0  0  1  0  0
   -1.6810    2.0240    0.5240 C   0  0  0  1  0  0
   -2.5080    3.1970    0.9160 C   0  0  0  1  0  0
   -2.3810    0.8980   -0.1490 C   0  0  0  1  0  0
   -3.8380    3.2410    0.6840 C   0  0  0  1  0  0
   -3.7070    0.9370   -0.3830 C   0  0  0  1  0  0
   -4.5080    2.1020    0.0220 C   0  0  0  1  0  0
    0.2960   -2.0870    1.2950 H   0  0  0  1  0  0
    0.4360   -4.2960   -0.8270 H   0  0  0  1  0  0
    2.0440   -2.1250   -1.2460 H   0  0  0  1  0  0
   -1.8600   -2.3120   -0.3860 H   0  0  0  1  0  0
    0.1650   -2.3570   -2.7010 H   0  0  0  1  0  0
   -1.6180   -1.3170   -3.7480 H   0  0  0  1  0  0
   -2.4090   -0.8870   -2.1940 H   0  0  0  1  0  0
    5.4720    0.0820    1.0680 H   0  0  0  1  0  0
   -0.0320    3.9420    1.7390 H   0  0  0  1  0  0
   -2.0740    4.0580    1.4000 H   0  0  0  1  0  0
   -1.8330    0.0210   -0.4650 H   0  0  0  1  0  0
   -4.1850    0.1020   -0.8750 H   0  0  0  1  0  0
    2.3350   -2.7340    1.7250 H   0  0  0  1  0  0
   -0.1240   -4.8700    1.2980 H   0  0  0  1  0  0
   -2.5530   -3.2230   -2.3290 H   0  0  0  1  0  0
   -1.5570    0.8970   -3.3000 H   0  0  0  1  0  0
    3.7450   -2.4750   -0.7140 H   0  0  0  1  0  0
    5.5230    2.2210    2.0560 H   0  0  0  1  0  0
   -5.4930    4.3280    0.8810 H   0  0  0  1  0  0
    3.3120    3.9100    2.3960 H   0  0  0  1  0  0
  1 14  1  0
  1 16  1  0
  2 12  1  0
  2 45  1  0
  3 13  1  0
  3 46  1  0
  4 15  1  0
  4 47  1  0
  5 19  1  0
  5 25  1  0
  6 18  1  0
  6 48  1  0
  7 20  1  0
  7 49  1  0
  8 23  1  0
  8 50  1  0
  9 24  1  0
  9 52  1  0
 10 30  1  0
 10 51  1  0
 11 32  2  0
 12 13  1  0
 12 14  1  0
 12 33  1  0
 13 15  1  0
 13 34  1  0
 14 17  1  0
 14 35  1  0
 15 16  1  0
 15 36  1  0
 16 18  1  0
 16 37  1  0
 17 19  2  0
 17 20  1  0
 18 38  1  0
 18 39  1  0
 19 21  1  0
 20 22  2  0
 21 23  2  0
 21 24  1  0
 22 23  1  0
 22 40  1  0
 24 26  2  0
 25 26  1  0
 25 27  2  0
 26 41  1  0
 27 28  1  0
 27 29  1  0
 28 30  2  0
 28 42  1  0
 29 31  2  0
 29 43  1  0
 30 32  1  0
 31 32  1  0
 31 44  1  0
M  END
> <Name>
5281675

> <AbsoluteEnergy>
41.7679

> <ConfNumber>
1

> <Ionization pH>
7.49_PPPP

> <IonizationIndex>
1

> <NumberOfIonizations>
2

> <NumberOfStereoisomers>
1

> <NumberOfTautomers>
4

> <OBJECTID>
9223375580206137357

> <PUBCHEM_ATOM_DEF_STEREO_COUNT>
5

> <PUBCHEM_ATOM_UDEF_STEREO_COUNT>
0

> <PUBCHEM_BONDANNOTATIONS>
14  35  5
16  18  6
17  19  8
17  20  8
19  21  8
12  2  5
20  22  8
21  23  8
21  24  8
22  23  8
24  26  8
25  26  8
27  28  8
27  29  8
28  30  8
29  31  8
13  3  6
30  32  8
31  32  8
15  4  5
5  19  8
5  25  8

> <PUBCHEM_BOND_DEF_STEREO_COUNT>
0

> <PUBCHEM_BOND_UDEF_STEREO_COUNT>
0

> <PUBCHEM_CACTVS_COMPLEXITY>
729

> <PUBCHEM_CACTVS_HBOND_ACCEPTOR>
11

> <PUBCHEM_CACTVS_HBOND_DONOR>
8

> <PUBCHEM_CACTVS_ROTATABLE_BOND>
3

> <PUBCHEM_CACTVS_SUBSKEYS>
AAADceB4PAAAAAAAAAAAAAAAAAAAAAAAAAA0YIEAAAAAAACBQAAAGgAACAAADBSgmAIwBoAABgCIAqBSAAACCAAkIAAIiAEGiMgNNzaGNRqCeWGl4BULuQfI7PzOIAADCAAIQABAAAYQABCAAAAAAAAAAA==

> <PUBCHEM_CACTVS_TAUTO_COUNT>
162

> <PUBCHEM_CACTVS_TPSA>
197

> <PUBCHEM_COMPONENT_COUNT>
1

> <PUBCHEM_COMPOUND_CANONICALIZED>
1

> <PUBCHEM_COMPOUND_CID>
5281675

> <PUBCHEM_COORDINATE_TYPE>
1
5
255

> <PUBCHEM_EXACT_MASS>
448.10056145

> <PUBCHEM_HEAVY_ATOM_COUNT>
32

> <PUBCHEM_ISOTOPIC_ATOM_COUNT>
0

> <PUBCHEM_IUPAC_CAS_NAME>
2-(3,4-dihydroxyphenyl)-5,7-dihydroxy-8-[(2S,3R,4R,5S,6R)-3,4,5-trihydroxy-6-(hydroxymethyl)-2-oxanyl]-1-benzopyran-4-one

> <PUBCHEM_IUPAC_INCHI>
InChI=1S/C21H20O11/c22-6-14-17(28)18(29)19(30)21(32-14)16-11(26)4-10(25)15-12(27)5-13(31-20(15)16)7-1-2-8(23)9(24)3-7/h1-5,14,17-19,21-26,28-30H,6H2/t14-,17-,18+,19-,21+/m1/s1

> <PUBCHEM_IUPAC_INCHIKEY>
PLAPMLGJVGLZOV-VPRICQMDSA-N

> <PUBCHEM_IUPAC_NAME>
2-(3,4-dihydroxyphenyl)-5,7-dihydroxy-8-[(2S,3R,4R,5S,6R)-3,4,5-trihydroxy-6-(hydroxymethyl)oxan-2-yl]chromen-4-one

> <PUBCHEM_IUPAC_NAME_MARKUP>
2-(3,4-dihydroxyphenyl)-5,7-dihydroxy-8-[(2<I>S</I>,3<I>R</I>,4<I>R</I>,5<I>S</I>,6<I>R</I>)-3,4,5-trihydroxy-6-(hydroxymethyl)oxan-2-yl]chromen-4-one

> <PUBCHEM_IUPAC_OPENEYE_NAME>
2-(3,4-dihydroxyphenyl)-5,7-dihydroxy-8-[(2S,3R,4R,5S,6R)-3,4,5-trihydroxy-6-(hydroxymethyl)tetrahydropyran-2-yl]chromen-4-one

> <PUBCHEM_IUPAC_SYSTEMATIC_NAME>
2-[3,4-bis(oxidanyl)phenyl]-8-[(2S,3R,4R,5S,6R)-6-(hydroxymethyl)-3,4,5-tris(oxidanyl)oxan-2-yl]-5,7-bis(oxidanyl)chromen-4-one

> <PUBCHEM_IUPAC_TRADITIONAL_NAME>
2-(3,4-dihydroxyphenyl)-5,7-dihydroxy-8-[(2S,3R,4R,5S,6R)-3,4,5-trihydroxy-6-methylol-tetrahydropyran-2-yl]chromone

> <PUBCHEM_MOLECULAR_FORMULA>
C21H20O11

> <PUBCHEM_MOLECULAR_WEIGHT>
448.4

> <PUBCHEM_MONOISOTOPIC_WEIGHT>
448.10056145

> <PUBCHEM_OPENEYE_CAN_SMILES>
C1=CC(=C(C=C1C2=CC(=O)C3=C(O2)C(=C(C=C3O)O)C4C(C(C(C(O4)CO)O)O)O)O)O

> <PUBCHEM_OPENEYE_ISO_SMILES>
C1=CC(=C(C=C1C2=CC(=O)C3=C(O2)C(=C(C=C3O)O)[C@H]4[C@@H]([C@H]([C@@H]([C@H](O4)CO)O)O)O)O)O

> <PUBCHEM_TOTAL_CHARGE>
0

> <PUBCHEM_XLOGP3_AA>
-0.2

> <RelativeEnergy>
0

> <StereoisomerIndex>
1

> <TautomerIndex>
4

> <LibDock Warning>
no hit found

> <ErrorText>
LibDock failed

$$$$
5281675
  SciTegic09112317153D

 51 54  0  0  0  0            999 V2000
    1.4840    0.5270    0.8340 O   0  0  0  1  0  0
    3.7110   -0.3330   -1.9460 O   0  0  0  1  0  0
    2.7910    2.3300   -2.6560 O   0  0  0  1  0  0
    2.1350    3.9270   -0.3150 O   0  0  0  1  0  0
   -0.2030   -1.0780    0.2120 O   0  0  0  1  0  0
   -0.3980    3.0020    0.9330 O   0  0  0  1  0  0
    4.4570   -2.2690    0.2130 O   0  5  0  1  0  0
    1.1320   -5.6930    0.3830 O   0  0  0  1  0  0
   -1.4920   -4.8850    0.3690 O   0  0  0  1  0  0
   -5.6850    0.5750   -1.3940 O   0  0  0  1  0  0
   -5.2840    2.8230    0.1100 O   0  0  0  1  0  0
    2.6260    0.3200   -1.3040 C   0  0  2  1  0  0
    2.8670    1.8470   -1.3240 C   0  0  2  1  0  0
    2.4900   -0.2110    0.1490 C   0  0  2  1  0  0
    1.8070    2.5540   -0.4520 C   0  0  1  1  0  0
    1.7290    1.9220    0.9570 C   0  0  1  1  0  0
    2.1300   -1.6370    0.2110 C   0  0  0  1  0  0
    0.5900    2.5000    1.8040 C   0  0  0  1  0  0
    0.7650   -2.0210    0.2400 C   0  0  0  1  0  0
    3.1450   -2.6260    0.2410 C   0  0  0  1  0  0
    0.4240   -3.3980    0.2970 C   0  0  0  1  0  0
    2.7980   -3.9970    0.3010 C   0  0  0  1  0  0
    1.4380   -4.3890    0.3270 C   0  0  0  1  0  0
   -1.0210   -3.7710    0.3220 C   0  0  0  1  0  0
   -1.5230   -1.3610    0.2340 C   0  0  0  1  0  0
   -1.9670   -2.6370    0.2870 C   0  0  0  1  0  0
   -2.5210   -0.2500    0.2010 C   0  0  0  1  0  0
   -3.6680   -0.3600   -0.6030 C   0  0  0  1  0  0
   -2.3150    0.9050    0.9750 C   0  0  0  1  0  0
   -4.6120    0.6830   -0.6370 C   0  0  0  1  0  0
   -3.2570    1.9480    0.9410 C   0  0  0  1  0  0
   -4.4060    1.8400    0.1370 C   0  0  0  1  0  0
    1.7210    0.0830   -1.8690 H   0  0  0  1  0  0
    3.8650    2.0690   -0.9430 H   0  0  0  1  0  0
    3.4270   -0.0760    0.6950 H   0  0  0  1  0  0
    0.8280    2.4990   -0.9300 H   0  0  0  1  0  0
    2.6730    2.0460    1.4890 H   0  0  0  1  0  0
    0.9490    3.3260    2.4190 H   0  0  0  1  0  0
    0.1370    1.7260    2.4210 H   0  0  0  1  0  0
    3.5740   -4.7460    0.3240 H   0  0  0  1  0  0
   -3.0280   -2.8510    0.3020 H   0  0  0  1  0  0
   -3.8340   -1.2460   -1.1990 H   0  0  0  1  0  0
   -1.4370    0.9990    1.5960 H   0  0  0  1  0  0
   -3.0950    2.8360    1.5370 H   0  0  0  1  0  0
    3.3420   -1.0750   -2.4490 H   0  0  0  1  0  0
    2.9470    3.2850   -2.6190 H   0  0  0  1  0  0
    1.4490    4.3340    0.2360 H   0  0  0  1  0  0
   -1.0920    3.3970    1.4820 H   0  0  0  1  0  0
    1.8440   -6.3450    0.4040 H   0  0  0  1  0  0
   -6.3280    1.2960   -1.4110 H   0  0  0  1  0  0
   -5.1280    3.6110    0.6490 H   0  0  0  1  0  0
  1 14  1  0
  1 16  1  0
  2 12  1  0
  2 45  1  0
  3 13  1  0
  3 46  1  0
  4 15  1  0
  4 47  1  0
  5 19  1  0
  5 25  1  0
  6 18  1  0
  6 48  1  0
  7 20  1  0
  8 23  1  0
  8 49  1  0
  9 24  2  0
 10 30  1  0
 10 50  1  0
 11 32  1  0
 11 51  1  0
 12 13  1  0
 12 14  1  0
 12 33  1  0
 13 15  1  0
 13 34  1  0
 14 17  1  0
 14 35  1  0
 15 16  1  0
 15 36  1  0
 16 18  1  0
 16 37  1  0
 17 19  2  0
 17 20  1  0
 18 38  1  0
 18 39  1  0
 19 21  1  0
 20 22  2  0
 21 23  2  0
 21 24  1  0
 22 23  1  0
 22 40  1  0
 24 26  1  0
 25 26  2  0
 25 27  1  0
 26 41  1  0
 27 28  2  0
 27 29  1  0
 28 30  1  0
 28 42  1  0
 29 31  2  0
 29 43  1  0
 30 32  2  0
 31 32  1  0
 31 44  1  0
M  CHG  1   7  -1
M  END
> <Name>
5281675

> <AbsoluteEnergy>
42.3282

> <ConfNumber>
1

> <Ionization pH>
7.49_DPPP

> <IonizationIndex>
2

> <NumberOfIonizations>
2

> <NumberOfStereoisomers>
1

> <NumberOfTautomers>
3

> <OBJECTID>
9223375584501104653

> <PUBCHEM_ATOM_DEF_STEREO_COUNT>
5

> <PUBCHEM_ATOM_UDEF_STEREO_COUNT>
0

> <PUBCHEM_BONDANNOTATIONS>
14  35  5
16  18  6
17  19  8
17  20  8
19  21  8
12  2  5
20  22  8
21  23  8
21  24  8
22  23  8
24  26  8
25  26  8
27  28  8
27  29  8
28  30  8
29  31  8
13  3  6
30  32  8
31  32  8
15  4  5
5  19  8
5  25  8

> <PUBCHEM_BOND_DEF_STEREO_COUNT>
0

> <PUBCHEM_BOND_UDEF_STEREO_COUNT>
0

> <PUBCHEM_CACTVS_COMPLEXITY>
729

> <PUBCHEM_CACTVS_HBOND_ACCEPTOR>
11

> <PUBCHEM_CACTVS_HBOND_DONOR>
8

> <PUBCHEM_CACTVS_ROTATABLE_BOND>
3

> <PUBCHEM_CACTVS_SUBSKEYS>
AAADceB4PAAAAAAAAAAAAAAAAAAAAAAAAAA0YIEAAAAAAACBQAAAGgAACAAADBSgmAIwBoAABgCIAqBSAAACCAAkIAAIiAEGiMgNNzaGNRqCeWGl4BULuQfI7PzOIAADCAAIQABAAAYQABCAAAAAAAAAAA==

> <PUBCHEM_CACTVS_TAUTO_COUNT>
162

> <PUBCHEM_CACTVS_TPSA>
197

> <PUBCHEM_COMPONENT_COUNT>
1

> <PUBCHEM_COMPOUND_CANONICALIZED>
1

> <PUBCHEM_COMPOUND_CID>
5281675

> <PUBCHEM_COORDINATE_TYPE>
1
5
255

> <PUBCHEM_EXACT_MASS>
448.10056145

> <PUBCHEM_HEAVY_ATOM_COUNT>
32

> <PUBCHEM_ISOTOPIC_ATOM_COUNT>
0

> <PUBCHEM_IUPAC_CAS_NAME>
2-(3,4-dihydroxyphenyl)-5,7-dihydroxy-8-[(2S,3R,4R,5S,6R)-3,4,5-trihydroxy-6-(hydroxymethyl)-2-oxanyl]-1-benzopyran-4-one

> <PUBCHEM_IUPAC_INCHI>
InChI=1S/C21H20O11/c22-6-14-17(28)18(29)19(30)21(32-14)16-11(26)4-10(25)15-12(27)5-13(31-20(15)16)7-1-2-8(23)9(24)3-7/h1-5,14,17-19,21-26,28-30H,6H2/t14-,17-,18+,19-,21+/m1/s1

> <PUBCHEM_IUPAC_INCHIKEY>
PLAPMLGJVGLZOV-VPRICQMDSA-N

> <PUBCHEM_IUPAC_NAME>
2-(3,4-dihydroxyphenyl)-5,7-dihydroxy-8-[(2S,3R,4R,5S,6R)-3,4,5-trihydroxy-6-(hydroxymethyl)oxan-2-yl]chromen-4-one

> <PUBCHEM_IUPAC_NAME_MARKUP>
2-(3,4-dihydroxyphenyl)-5,7-dihydroxy-8-[(2<I>S</I>,3<I>R</I>,4<I>R</I>,5<I>S</I>,6<I>R</I>)-3,4,5-trihydroxy-6-(hydroxymethyl)oxan-2-yl]chromen-4-one

> <PUBCHEM_IUPAC_OPENEYE_NAME>
2-(3,4-dihydroxyphenyl)-5,7-dihydroxy-8-[(2S,3R,4R,5S,6R)-3,4,5-trihydroxy-6-(hydroxymethyl)tetrahydropyran-2-yl]chromen-4-one

> <PUBCHEM_IUPAC_SYSTEMATIC_NAME>
2-[3,4-bis(oxidanyl)phenyl]-8-[(2S,3R,4R,5S,6R)-6-(hydroxymethyl)-3,4,5-tris(oxidanyl)oxan-2-yl]-5,7-bis(oxidanyl)chromen-4-one

> <PUBCHEM_IUPAC_TRADITIONAL_NAME>
2-(3,4-dihydroxyphenyl)-5,7-dihydroxy-8-[(2S,3R,4R,5S,6R)-3,4,5-trihydroxy-6-methylol-tetrahydropyran-2-yl]chromone

> <PUBCHEM_MOLECULAR_FORMULA>
C21H20O11

> <PUBCHEM_MOLECULAR_WEIGHT>
448.4

> <PUBCHEM_MONOISOTOPIC_WEIGHT>
448.10056145

> <PUBCHEM_OPENEYE_CAN_SMILES>
C1=CC(=C(C=C1C2=CC(=O)C3=C(O2)C(=C(C=C3O)O)C4C(C(C(C(O4)CO)O)O)O)O)O

> <PUBCHEM_OPENEYE_ISO_SMILES>
C1=CC(=C(C=C1C2=CC(=O)C3=C(O2)C(=C(C=C3O)O)[C@H]4[C@@H]([C@H]([C@@H]([C@H](O4)CO)O)O)O)O)O

> <PUBCHEM_TOTAL_CHARGE>
0

> <PUBCHEM_XLOGP3_AA>
-0.2

> <RelativeEnergy>
0

> <StereoisomerIndex>
1

> <TautomerIndex>
1

> <LibDock Warning>
no hit found

> <ErrorText>
LibDock failed

$$$$
5281675
  SciTegic09112317153D

 51 54  0  0  0  0            999 V2000
    1.7110    1.0930    1.0120 O   0  0  0  1  0  0
    1.5560    1.3410   -2.6640 O   0  0  0  1  0  0
   -0.2720    3.5250   -1.4890 O   0  0  0  1  0  0
    2.5790    3.8820    0.5930 O   0  0  0  1  0  0
    0.1080   -0.9040   -0.1500 O   0  0  0  1  0  0
   -0.7720    0.9950    2.3950 O   0  0  0  1  0  0
    4.6600   -0.1900   -1.0050 O   0  5  0  1  0  0
    3.1860   -4.4870   -1.1900 O   0  0  0  1  0  0
    0.6130   -5.0040   -0.7600 O   0  0  0  1  0  0
   -5.1310   -2.0780    2.3850 O   0  0  0  1  0  0
   -6.0350    0.2190    1.2070 O   0  0  0  1  0  0
    1.1340    1.5710   -1.3310 C   0  0  2  1  0  0
    1.0180    3.0980   -1.0910 C   0  0  2  1  0  0
    2.1370    0.9310   -0.3430 C   0  0  2  1  0  0
    1.2410    3.4580    0.4000 C   0  0  1  1  0  0
    0.9500    2.2590    1.3360 C   0  0  1  1  0  0
    2.3700   -0.5440   -0.5700 C   0  0  0  1  0  0
   -0.5290    1.8580    1.3080 C   0  0  0  1  0  0
    1.3300   -1.4020   -0.4600 C   0  0  0  1  0  0
    3.7390   -1.0030   -0.9090 C   0  0  0  1  0  0
    1.5590   -2.8570   -0.6830 C   0  0  0  1  0  0
    3.9950   -2.3110   -1.1130 C   0  0  0  1  0  0
    2.9270   -3.3190   -1.0100 C   0  0  0  1  0  0
    0.5040   -3.6890   -0.5760 C   0  0  0  1  0  0
   -0.9260   -1.7720   -0.0560 C   0  0  0  1  0  0
   -0.8000   -3.1040   -0.2480 C   0  0  0  1  0  0
   -2.2830   -1.2440    0.2800 C   0  0  0  1  0  0
   -3.0960   -1.9260    1.2030 C   0  0  0  1  0  0
   -2.7480   -0.0630   -0.3250 C   0  0  0  1  0  0
   -4.3730   -1.4340    1.5200 C   0  0  0  1  0  0
   -4.0250    0.4320   -0.0070 C   0  0  0  1  0  0
   -4.8400   -0.2510    0.9140 C   0  0  0  1  0  0
    0.1670    1.0740   -1.2190 H   0  0  0  1  0  0
    1.7180    3.6540   -1.7200 H   0  0  0  1  0  0
    3.0970    1.4430   -0.4330 H   0  0  0  1  0  0
    0.6300    4.3130    0.6970 H   0  0  0  1  0  0
    1.1960    2.5160    2.3670 H   0  0  0  1  0  0
   -0.7650    1.3210    0.3900 H   0  0  0  1  0  0
   -1.1690    2.7340    1.4200 H   0  0  0  1  0  0
    4.9990   -2.6310   -1.3570 H   0  0  0  1  0  0
   -1.6530   -3.7650   -0.1650 H   0  0  0  1  0  0
   -2.7450   -2.8340    1.6710 H   0  0  0  1  0  0
   -2.1290    0.4680   -1.0340 H   0  0  0  1  0  0
   -4.3790    1.3380   -0.4730 H   0  0  0  1  0  0
    1.5020    0.3860   -2.8210 H   0  0  0  1  0  0
   -0.3010    4.4890   -1.3870 H   0  0  0  1  0  0
    2.6660    4.1400    1.5250 H   0  0  0  1  0  0
   -1.7230    0.8000    2.3980 H   0  0  0  1  0  0
   -6.0070   -1.7300    2.5970 H   0  0  0  1  0  0
   -6.3410    1.0320    0.7830 H   0  0  0  1  0  0
    1.4690   -5.3780   -1.0050 H   0  0  0  1  0  0
  1 14  1  0
  1 16  1  0
  2 12  1  0
  2 45  1  0
  3 13  1  0
  3 46  1  0
  4 15  1  0
  4 47  1  0
  5 19  1  0
  5 25  1  0
  6 18  1  0
  6 48  1  0
  7 20  1  0
  8 23  2  0
  9 24  1  0
  9 51  1  0
 10 30  1  0
 10 49  1  0
 11 32  1  0
 11 50  1  0
 12 13  1  0
 12 14  1  0
 12 33  1  0
 13 15  1  0
 13 34  1  0
 14 17  1  0
 14 35  1  0
 15 16  1  0
 15 36  1  0
 16 18  1  0
 16 37  1  0
 17 19  2  0
 17 20  1  0
 18 38  1  0
 18 39  1  0
 19 21  1  0
 20 22  2  0
 21 23  1  0
 21 24  2  0
 22 23  1  0
 22 40  1  0
 24 26  1  0
 25 26  2  0
 25 27  1  0
 26 41  1  0
 27 28  2  0
 27 29  1  0
 28 30  1  0
 28 42  1  0
 29 31  2  0
 29 43  1  0
 30 32  2  0
 31 32  1  0
 31 44  1  0
M  CHG  1   7  -1
M  END
> <Name>
5281675

> <AbsoluteEnergy>
42.9821

> <ConfNumber>
1

> <Ionization pH>
7.49_DPPP

> <IonizationIndex>
2

> <NumberOfIonizations>
2

> <NumberOfStereoisomers>
1

> <NumberOfTautomers>
3

> <OBJECTID>
9223375588796071949

> <PUBCHEM_ATOM_DEF_STEREO_COUNT>
5

> <PUBCHEM_ATOM_UDEF_STEREO_COUNT>
0

> <PUBCHEM_BONDANNOTATIONS>
14  35  5
16  18  6
17  19  8
17  20  8
19  21  8
12  2  5
20  22  8
21  23  8
21  24  8
22  23  8
24  26  8
25  26  8
27  28  8
27  29  8
28  30  8
29  31  8
13  3  6
30  32  8
31  32  8
15  4  5
5  19  8
5  25  8

> <PUBCHEM_BOND_DEF_STEREO_COUNT>
0

> <PUBCHEM_BOND_UDEF_STEREO_COUNT>
0

> <PUBCHEM_CACTVS_COMPLEXITY>
729

> <PUBCHEM_CACTVS_HBOND_ACCEPTOR>
11

> <PUBCHEM_CACTVS_HBOND_DONOR>
8

> <PUBCHEM_CACTVS_ROTATABLE_BOND>
3

> <PUBCHEM_CACTVS_SUBSKEYS>
AAADceB4PAAAAAAAAAAAAAAAAAAAAAAAAAA0YIEAAAAAAACBQAAAGgAACAAADBSgmAIwBoAABgCIAqBSAAACCAAkIAAIiAEGiMgNNzaGNRqCeWGl4BULuQfI7PzOIAADCAAIQABAAAYQABCAAAAAAAAAAA==

> <PUBCHEM_CACTVS_TAUTO_COUNT>
162

> <PUBCHEM_CACTVS_TPSA>
197

> <PUBCHEM_COMPONENT_COUNT>
1

> <PUBCHEM_COMPOUND_CANONICALIZED>
1

> <PUBCHEM_COMPOUND_CID>
5281675

> <PUBCHEM_COORDINATE_TYPE>
1
5
255

> <PUBCHEM_EXACT_MASS>
448.10056145

> <PUBCHEM_HEAVY_ATOM_COUNT>
32

> <PUBCHEM_ISOTOPIC_ATOM_COUNT>
0

> <PUBCHEM_IUPAC_CAS_NAME>
2-(3,4-dihydroxyphenyl)-5,7-dihydroxy-8-[(2S,3R,4R,5S,6R)-3,4,5-trihydroxy-6-(hydroxymethyl)-2-oxanyl]-1-benzopyran-4-one

> <PUBCHEM_IUPAC_INCHI>
InChI=1S/C21H20O11/c22-6-14-17(28)18(29)19(30)21(32-14)16-11(26)4-10(25)15-12(27)5-13(31-20(15)16)7-1-2-8(23)9(24)3-7/h1-5,14,17-19,21-26,28-30H,6H2/t14-,17-,18+,19-,21+/m1/s1

> <PUBCHEM_IUPAC_INCHIKEY>
PLAPMLGJVGLZOV-VPRICQMDSA-N

> <PUBCHEM_IUPAC_NAME>
2-(3,4-dihydroxyphenyl)-5,7-dihydroxy-8-[(2S,3R,4R,5S,6R)-3,4,5-trihydroxy-6-(hydroxymethyl)oxan-2-yl]chromen-4-one

> <PUBCHEM_IUPAC_NAME_MARKUP>
2-(3,4-dihydroxyphenyl)-5,7-dihydroxy-8-[(2<I>S</I>,3<I>R</I>,4<I>R</I>,5<I>S</I>,6<I>R</I>)-3,4,5-trihydroxy-6-(hydroxymethyl)oxan-2-yl]chromen-4-one

> <PUBCHEM_IUPAC_OPENEYE_NAME>
2-(3,4-dihydroxyphenyl)-5,7-dihydroxy-8-[(2S,3R,4R,5S,6R)-3,4,5-trihydroxy-6-(hydroxymethyl)tetrahydropyran-2-yl]chromen-4-one

> <PUBCHEM_IUPAC_SYSTEMATIC_NAME>
2-[3,4-bis(oxidanyl)phenyl]-8-[(2S,3R,4R,5S,6R)-6-(hydroxymethyl)-3,4,5-tris(oxidanyl)oxan-2-yl]-5,7-bis(oxidanyl)chromen-4-one

> <PUBCHEM_IUPAC_TRADITIONAL_NAME>
2-(3,4-dihydroxyphenyl)-5,7-dihydroxy-8-[(2S,3R,4R,5S,6R)-3,4,5-trihydroxy-6-methylol-tetrahydropyran-2-yl]chromone

> <PUBCHEM_MOLECULAR_FORMULA>
C21H20O11

> <PUBCHEM_MOLECULAR_WEIGHT>
448.4

> <PUBCHEM_MONOISOTOPIC_WEIGHT>
448.10056145

> <PUBCHEM_OPENEYE_CAN_SMILES>
C1=CC(=C(C=C1C2=CC(=O)C3=C(O2)C(=C(C=C3O)O)C4C(C(C(C(O4)CO)O)O)O)O)O

> <PUBCHEM_OPENEYE_ISO_SMILES>
C1=CC(=C(C=C1C2=CC(=O)C3=C(O2)C(=C(C=C3O)O)[C@H]4[C@@H]([C@H]([C@@H]([C@H](O4)CO)O)O)O)O)O

> <PUBCHEM_TOTAL_CHARGE>
0

> <PUBCHEM_XLOGP3_AA>
-0.2

> <RelativeEnergy>
0

> <StereoisomerIndex>
1

> <TautomerIndex>
2

> <LibDock Warning>
no hit found

> <ErrorText>
LibDock failed

$$$$
5281675
  SciTegic09112317153D

 51 54  0  0  0  0            999 V2000
    0.4110    1.3820    0.6240 O   0  0  0  1  0  0
    3.0930    1.3490   -1.8730 O   0  0  0  1  0  0
    0.9950    2.8590   -3.1990 O   0  0  0  1  0  0
   -0.7080    4.2650   -1.3070 O   0  0  0  1  0  0
   -0.0570   -0.9690    0.4100 O   0  0  0  1  0  0
   -1.5530    1.6290    2.0240 O   0  0  0  1  0  0
    4.4680    0.6270    0.6890 O   0  5  0  1  0  0
    3.4970   -3.9430    1.6780 O   0  0  0  1  0  0
    0.9340   -4.8580    1.5200 O   0  0  0  1  0  0
   -5.6980   -3.0260    0.1850 O   0  0  0  1  0  0
   -6.1350   -0.3900   -0.5080 O   0  0  0  1  0  0
    1.7550    1.4120   -1.4030 C   0  0  2  1  0  0
    1.1430    2.7770   -1.7900 C   0  0  2  1  0  0
    1.7360    1.2000    0.1340 C   0  0  2  1  0  0
   -0.2320    2.9460   -1.1100 C   0  0  1  1  0  0
   -0.1440    2.6730    0.4070 C   0  0  1  1  0  0
    2.1890   -0.1420    0.5380 C   0  0  0  1  0  0
   -1.5150    2.6880    1.0940 C   0  0  0  1  0  0
    1.2510   -1.1990    0.6600 C   0  0  0  1  0  0
    3.5600   -0.3810    0.8030 C   0  0  0  1  0  0
    1.6900   -2.4940    1.0480 C   0  0  0  1  0  0
    3.9940   -1.6710    1.1890 C   0  0  0  1  0  0
    3.0640   -2.7290    1.3120 C   0  0  0  1  0  0
    0.6890   -3.5940    1.1730 C   0  0  0  1  0  0
   -1.0130   -1.9130    0.5130 C   0  0  0  1  0  0
   -0.6000   -3.2880    0.9090 C   0  0  0  1  0  0
   -2.2990   -1.5640    0.2540 C   0  0  0  1  0  0
   -3.4390   -2.5210    0.3410 C   0  0  0  1  0  0
   -2.6240   -0.1670   -0.1400 C   0  0  0  1  0  0
   -4.7090   -2.1420    0.0920 C   0  0  0  1  0  0
   -3.8890    0.2170   -0.3920 C   0  0  0  1  0  0
   -5.0010   -0.7430   -0.2880 C   0  0  0  1  0  0
    1.1990    0.6070   -1.8930 H   0  0  0  1  0  0
    1.8100    3.5830   -1.4750 H   0  0  0  1  0  0
    2.3740    1.9340    0.6310 H   0  0  0  1  0  0
   -0.9590    2.2670   -1.5600 H   0  0  0  1  0  0
    0.5080    3.4000    0.8930 H   0  0  0  1  0  0
   -2.3110    2.5300    0.3670 H   0  0  0  1  0  0
   -1.6650    3.6210    1.6360 H   0  0  0  1  0  0
    5.0400   -1.8480    1.3890 H   0  0  0  1  0  0
   -1.3220   -4.0840    1.0000 H   0  0  0  1  0  0
   -3.2870   -3.5530    0.6100 H   0  0  0  1  0  0
   -1.8400    0.5740   -0.2300 H   0  0  0  1  0  0
   -4.0900    1.2410   -0.6730 H   0  0  0  1  0  0
    3.3440    0.4110   -1.8980 H   0  0  0  1  0  0
    0.6100    3.7270   -3.3940 H   0  0  0  1  0  0
   -1.5710    4.3300   -0.8690 H   0  0  0  1  0  0
   -2.4140    1.6720    2.4710 H   0  0  0  1  0  0
    4.4380   -4.0780    1.8500 H   0  0  0  1  0  0
   -6.6050   -2.7450    0.0040 H   0  0  0  1  0  0
    1.8420   -5.1250    1.7180 H   0  0  0  1  0  0
  1 14  1  0
  1 16  1  0
  2 12  1  0
  2 45  1  0
  3 13  1  0
  3 46  1  0
  4 15  1  0
  4 47  1  0
  5 19  1  0
  5 25  1  0
  6 18  1  0
  6 48  1  0
  7 20  1  0
  8 23  1  0
  8 49  1  0
  9 24  1  0
  9 51  1  0
 10 30  1  0
 10 50  1  0
 11 32  2  0
 12 13  1  0
 12 14  1  0
 12 33  1  0
 13 15  1  0
 13 34  1  0
 14 17  1  0
 14 35  1  0
 15 16  1  0
 15 36  1  0
 16 18  1  0
 16 37  1  0
 17 19  2  0
 17 20  1  0
 18 38  1  0
 18 39  1  0
 19 21  1  0
 20 22  2  0
 21 23  2  0
 21 24  1  0
 22 23  1  0
 22 40  1  0
 24 26  2  0
 25 26  1  0
 25 27  2  0
 26 41  1  0
 27 28  1  0
 27 29  1  0
 28 30  2  0
 28 42  1  0
 29 31  2  0
 29 43  1  0
 30 32  1  0
 31 32  1  0
 31 44  1  0
M  CHG  1   7  -1
M  END
> <Name>
5281675

> <AbsoluteEnergy>
36.1134

> <ConfNumber>
1

> <Ionization pH>
7.49_DPPP

> <IonizationIndex>
2

> <NumberOfIonizations>
2

> <NumberOfStereoisomers>
1

> <NumberOfTautomers>
3

> <OBJECTID>
9223375593091039245

> <PUBCHEM_ATOM_DEF_STEREO_COUNT>
5

> <PUBCHEM_ATOM_UDEF_STEREO_COUNT>
0

> <PUBCHEM_BONDANNOTATIONS>
14  35  5
16  18  6
17  19  8
17  20  8
19  21  8
12  2  5
20  22  8
21  23  8
21  24  8
22  23  8
24  26  8
25  26  8
27  28  8
27  29  8
28  30  8
29  31  8
13  3  6
30  32  8
31  32  8
15  4  5
5  19  8
5  25  8

> <PUBCHEM_BOND_DEF_STEREO_COUNT>
0

> <PUBCHEM_BOND_UDEF_STEREO_COUNT>
0

> <PUBCHEM_CACTVS_COMPLEXITY>
729

> <PUBCHEM_CACTVS_HBOND_ACCEPTOR>
11

> <PUBCHEM_CACTVS_HBOND_DONOR>
8

> <PUBCHEM_CACTVS_ROTATABLE_BOND>
3

> <PUBCHEM_CACTVS_SUBSKEYS>
AAADceB4PAAAAAAAAAAAAAAAAAAAAAAAAAA0YIEAAAAAAACBQAAAGgAACAAADBSgmAIwBoAABgCIAqBSAAACCAAkIAAIiAEGiMgNNzaGNRqCeWGl4BULuQfI7PzOIAADCAAIQABAAAYQABCAAAAAAAAAAA==

> <PUBCHEM_CACTVS_TAUTO_COUNT>
162

> <PUBCHEM_CACTVS_TPSA>
197

> <PUBCHEM_COMPONENT_COUNT>
1

> <PUBCHEM_COMPOUND_CANONICALIZED>
1

> <PUBCHEM_COMPOUND_CID>
5281675

> <PUBCHEM_COORDINATE_TYPE>
1
5
255

> <PUBCHEM_EXACT_MASS>
448.10056145

> <PUBCHEM_HEAVY_ATOM_COUNT>
32

> <PUBCHEM_ISOTOPIC_ATOM_COUNT>
0

> <PUBCHEM_IUPAC_CAS_NAME>
2-(3,4-dihydroxyphenyl)-5,7-dihydroxy-8-[(2S,3R,4R,5S,6R)-3,4,5-trihydroxy-6-(hydroxymethyl)-2-oxanyl]-1-benzopyran-4-one

> <PUBCHEM_IUPAC_INCHI>
InChI=1S/C21H20O11/c22-6-14-17(28)18(29)19(30)21(32-14)16-11(26)4-10(25)15-12(27)5-13(31-20(15)16)7-1-2-8(23)9(24)3-7/h1-5,14,17-19,21-26,28-30H,6H2/t14-,17-,18+,19-,21+/m1/s1

> <PUBCHEM_IUPAC_INCHIKEY>
PLAPMLGJVGLZOV-VPRICQMDSA-N

> <PUBCHEM_IUPAC_NAME>
2-(3,4-dihydroxyphenyl)-5,7-dihydroxy-8-[(2S,3R,4R,5S,6R)-3,4,5-trihydroxy-6-(hydroxymethyl)oxan-2-yl]chromen-4-one

> <PUBCHEM_IUPAC_NAME_MARKUP>
2-(3,4-dihydroxyphenyl)-5,7-dihydroxy-8-[(2<I>S</I>,3<I>R</I>,4<I>R</I>,5<I>S</I>,6<I>R</I>)-3,4,5-trihydroxy-6-(hydroxymethyl)oxan-2-yl]chromen-4-one

> <PUBCHEM_IUPAC_OPENEYE_NAME>
2-(3,4-dihydroxyphenyl)-5,7-dihydroxy-8-[(2S,3R,4R,5S,6R)-3,4,5-trihydroxy-6-(hydroxymethyl)tetrahydropyran-2-yl]chromen-4-one

> <PUBCHEM_IUPAC_SYSTEMATIC_NAME>
2-[3,4-bis(oxidanyl)phenyl]-8-[(2S,3R,4R,5S,6R)-6-(hydroxymethyl)-3,4,5-tris(oxidanyl)oxan-2-yl]-5,7-bis(oxidanyl)chromen-4-one

> <PUBCHEM_IUPAC_TRADITIONAL_NAME>
2-(3,4-dihydroxyphenyl)-5,7-dihydroxy-8-[(2S,3R,4R,5S,6R)-3,4,5-trihydroxy-6-methylol-tetrahydropyran-2-yl]chromone

> <PUBCHEM_MOLECULAR_FORMULA>
C21H20O11

> <PUBCHEM_MOLECULAR_WEIGHT>
448.4

> <PUBCHEM_MONOISOTOPIC_WEIGHT>
448.10056145

> <PUBCHEM_OPENEYE_CAN_SMILES>
C1=CC(=C(C=C1C2=CC(=O)C3=C(O2)C(=C(C=C3O)O)C4C(C(C(C(O4)CO)O)O)O)O)O

> <PUBCHEM_OPENEYE_ISO_SMILES>
C1=CC(=C(C=C1C2=CC(=O)C3=C(O2)C(=C(C=C3O)O)[C@H]4[C@@H]([C@H]([C@@H]([C@H](O4)CO)O)O)O)O)O

> <PUBCHEM_TOTAL_CHARGE>
0

> <PUBCHEM_XLOGP3_AA>
-0.2

> <RelativeEnergy>
0

> <StereoisomerIndex>
1

> <TautomerIndex>
3

> <LibDock Warning>
no hit found

> <ErrorText>
LibDock failed

$$$$
5284359
  SciTegic09112317153D

  1  0  0  0  0  0            999 V2000
    0.0000    0.0000    0.0000 Ca  0  2  0  1  0  0
M  CHG  1   1   2
M  END
> <Name>
5284359

> <AbsoluteEnergy>
0

> <ConfNumber>
1

> <IonizationIndex>
1

> <NumberOfIonizations>
1

> <NumberOfStereoisomers>
1

> <NumberOfTautomers>
1

> <OBJECTID>
9223375644630646797

> <PUBCHEM_ATOM_DEF_STEREO_COUNT>
0

> <PUBCHEM_ATOM_UDEF_STEREO_COUNT>
0

> <PUBCHEM_BOND_DEF_STEREO_COUNT>
0

> <PUBCHEM_BOND_UDEF_STEREO_COUNT>
0

> <PUBCHEM_CACTVS_COMPLEXITY>
0

> <PUBCHEM_CACTVS_HBOND_ACCEPTOR>
2

> <PUBCHEM_CACTVS_HBOND_DONOR>
0

> <PUBCHEM_CACTVS_ROTATABLE_BOND>
0

> <PUBCHEM_CACTVS_SUBSKEYS>
AAADcQAAAAAGAAgAAAAAAAAAAAAAAAAAAAAAAAAAAAAAAAAAAAAAAAAAAAAAAAAAAAAAAAAAAAAAAAAAAAAAAAAAAAAAAAAAAAAAAAAAAAAAAAAAAAAAAAAAAAAAAAAAAAAAAAAAAAAAAAAAAAAAAAAAAA==

> <PUBCHEM_CACTVS_TAUTO_COUNT>
1

> <PUBCHEM_CACTVS_TPSA>
0

> <PUBCHEM_COMPONENT_COUNT>
3

> <PUBCHEM_COMPOUND_CANONICALIZED>
1

> <PUBCHEM_COMPOUND_CID>
5284359

> <PUBCHEM_COORDINATE_TYPE>
1
5
255

> <PUBCHEM_EXACT_MASS>
109.9002962

> <PUBCHEM_HEAVY_ATOM_COUNT>
3

> <PUBCHEM_ISOTOPIC_ATOM_COUNT>
0

> <PUBCHEM_IUPAC_CAS_NAME>
calcium;dichloride

> <PUBCHEM_IUPAC_INCHI>
InChI=1S/Ca.2ClH/h;2*1H/q+2;;/p-2

> <PUBCHEM_IUPAC_INCHIKEY>
UXVMQQNJUSDDNG-UHFFFAOYSA-L

> <PUBCHEM_IUPAC_NAME>
calcium;dichloride

> <PUBCHEM_IUPAC_NAME_MARKUP>
calcium;dichloride

> <PUBCHEM_IUPAC_OPENEYE_NAME>
calcium;dichloride

> <PUBCHEM_IUPAC_SYSTEMATIC_NAME>
calcium;dichloride

> <PUBCHEM_IUPAC_TRADITIONAL_NAME>
calcium;dichloride

> <PUBCHEM_MOLECULAR_FORMULA>
CaCl2

> <PUBCHEM_MOLECULAR_WEIGHT>
110.98

> <PUBCHEM_MONOISOTOPIC_WEIGHT>
109.9002962

> <PUBCHEM_OPENEYE_CAN_SMILES>
[Cl-].[Cl-].[Ca+2]

> <PUBCHEM_OPENEYE_ISO_SMILES>
[Cl-].[Cl-].[Ca+2]

> <PUBCHEM_TOTAL_CHARGE>
0

> <RelativeEnergy>
0

> <StereoisomerIndex>
1

> <TautomerIndex>
1

> <LibDock Warning>
no hit found

> <ErrorText>
LibDock failed

$$$$
5481663
  SciTegic09112317153D

 76 80  0  0  0  0            999 V2000
    0.2730    1.4020    1.7930 O   0  0  0  1  0  0
    0.0190   -1.4490    2.3770 O   0  0  0  1  0  0
   -1.8990   -2.4280    1.5630 O   0  0  0  1  0  0
   -0.2480    1.2990    5.4010 O   0  0  0  1  0  0
   -0.0200    4.1530    4.8730 O   0  0  0  1  0  0
    1.1420    2.9630    0.3220 O   0  0  0  1  0  0
    1.6430    4.7010    2.5370 O   0  0  0  1  0  0
    1.5880   -2.6210    0.3180 O   0  0  0  1  0  0
    0.0000   -2.7870   -1.9180 O   0  0  0  1  0  0
   -2.5760   -4.4350   -1.4410 O   0  0  0  1  0  0
    1.1170    0.3750   -2.2770 O   0  0  0  1  0  0
    3.6460    2.4530    0.2850 O   0  0  0  1  0  0
    5.6450    0.9810   -0.8050 O   0  0  0  1  0  0
    4.6350   -2.2230   -4.1860 O   0  0  0  1  0  0
   -3.5510    0.0920   -3.4690 O   0  0  0  1  0  0
   -4.8110    1.8560   -1.7540 O   0  0  0  1  0  0
    0.2190    0.8170    3.0880 C   0  0  1  1  0  0
   -0.2870    1.8670    4.1040 C   0  0  2  1  0  0
    0.5760    3.1470    4.0670 C   0  0  1  1  0  0
    0.6990    3.6470    2.6110 C   0  0  2  1  0  0
    0.2500   -3.0510    0.5310 C   0  0  1  1  0  0
   -0.6020   -1.9450    1.2070 C   0  0  2  1  0  0
   -0.4240   -3.5350   -0.7850 C   0  0  1  1  0  0
   -1.9670   -3.4060   -0.6840 C   0  0  2  1  0  0
    1.1540    2.5100    1.6700 C   0  0  1  1  0  0
   -0.7010   -0.4040    2.9880 C   0  0  0  1  0  0
   -2.4320   -3.5020    0.7870 C   0  0  2  1  0  0
   -3.9530   -3.4530    0.9650 C   0  0  0  1  0  0
    1.5550    2.0260   -0.5290 C   0  0  0  1  0  0
    0.6050    1.2950   -1.4320 C   0  0  0  1  0  0
    2.8830    1.7540   -0.5550 C   0  0  0  1  0  0
    3.3610    0.7110   -1.5080 C   0  0  0  1  0  0
   -0.7440    1.4750   -1.4770 C   0  0  0  1  0  0
    2.4240    0.0570   -2.3440 C   0  0  0  1  0  0
    4.7380    0.3710   -1.5840 C   0  0  0  1  0  0
    2.8550   -0.9370   -3.2520 C   0  0  0  1  0  0
   -1.5470    0.6950   -2.4630 C   0  0  0  1  0  0
   -1.5060    2.4080   -0.6000 C   0  0  0  1  0  0
    5.1660   -0.6250   -2.4940 C   0  0  0  1  0  0
    4.2270   -1.2790   -3.3260 C   0  0  0  1  0  0
   -2.8870    0.8130   -2.5660 C   0  0  0  1  0  0
   -2.8460    2.5290   -0.6970 C   0  0  0  1  0  0
   -3.6100    1.7420   -1.6800 C   0  0  0  1  0  0
   -2.8810    0.0390   -4.7190 C   0  0  0  1  0  0
    1.2260    0.4880    3.3440 H   0  0  0  1  0  0
   -1.3280    2.1100    3.8850 H   0  0  0  1  0  0
    1.5680    2.9380    4.4730 H   0  0  0  1  0  0
   -0.2600    4.0390    2.2640 H   0  0  0  1  0  0
    0.3200   -3.9000    1.2150 H   0  0  0  1  0  0
   -0.7400   -1.1090    0.5180 H   0  0  0  1  0  0
   -0.1210   -4.5680   -0.9610 H   0  0  0  1  0  0
   -2.3170   -2.4570   -1.0960 H   0  0  0  1  0  0
    2.1660    2.1740    1.9040 H   0  0  0  1  0  0
   -1.5700   -0.1830    2.3690 H   0  0  0  1  0  0
   -1.0080   -0.7380    3.9810 H   0  0  0  1  0  0
   -2.0510   -4.4280    1.2250 H   0  0  0  1  0  0
   -4.2380   -3.4200    2.0160 H   0  0  0  1  0  0
   -4.4220   -4.3300    0.5200 H   0  0  0  1  0  0
   -4.3670   -2.5700    0.4790 H   0  0  0  1  0  0
    2.1390   -1.4350   -3.8870 H   0  0  0  1  0  0
   -1.0610    0.0020   -3.1350 H   0  0  0  1  0  0
   -1.0510    3.0290    0.1500 H   0  0  0  1  0  0
    6.2110   -0.8850   -2.5550 H   0  0  0  1  0  0
   -3.3690    3.2150   -0.0470 H   0  0  0  1  0  0
   -3.6020   -0.2600   -5.4800 H   0  0  0  1  0  0
   -2.3790    0.9940   -4.8770 H   0  0  0  1  0  0
   -2.1150   -0.7340   -4.6640 H   0  0  0  1  0  0
   -0.9180    0.5980    5.4260 H   0  0  0  1  0  0
   -0.0510    3.8170    5.7810 H   0  0  0  1  0  0
    1.6440    5.0200    1.6210 H   0  0  0  1  0  0
    1.9730   -2.4390    1.1900 H   0  0  0  1  0  0
   -0.4240   -3.1840   -2.6970 H   0  0  0  1  0  0
   -3.5260   -4.2420   -1.4770 H   0  0  0  1  0  0
    5.3530    1.6600   -0.1820 H   0  0  0  1  0  0
    3.9860   -2.6600   -4.7520 H   0  0  0  1  0  0
    3.4020    3.3620    0.5020 H   0  0  0  1  0  0
  1 17  1  0
  1 25  1  0
  2 22  1  0
  2 26  1  0
  3 22  1  0
  3 27  1  0
  4 18  1  0
  4 68  1  0
  5 19  1  0
  5 69  1  0
  6 25  1  0
  6 29  1  0
  7 20  1  0
  7 70  1  0
  8 21  1  0
  8 71  1  0
  9 23  1  0
  9 72  1  0
 10 24  1  0
 10 73  1  0
 11 30  1  0
 11 34  1  0
 12 31  1  0
 12 76  1  0
 13 35  1  0
 13 74  1  0
 14 40  1  0
 14 75  1  0
 15 41  1  0
 15 44  1  0
 16 43  2  0
 17 18  1  0
 17 26  1  0
 17 45  1  0
 18 19  1  0
 18 46  1  0
 19 20  1  0
 19 47  1  0
 20 25  1  0
 20 48  1  0
 21 22  1  0
 21 23  1  0
 21 49  1  0
 22 50  1  0
 23 24  1  0
 23 51  1  0
 24 27  1  0
 24 52  1  0
 25 53  1  0
 26 54  1  0
 26 55  1  0
 27 28  1  0
 27 56  1  0
 28 57  1  0
 28 58  1  0
 28 59  1  0
 29 30  1  0
 29 31  2  0
 30 33  2  0
 31 32  1  0
 32 34  2  0
 32 35  1  0
 33 37  1  0
 33 38  1  0
 34 36  1  0
 35 39  2  0
 36 40  2  0
 36 60  1  0
 37 41  2  0
 37 61  1  0
 38 42  2  0
 38 62  1  0
 39 40  1  0
 39 63  1  0
 41 43  1  0
 42 43  1  0
 42 64  1  0
 44 65  1  0
 44 66  1  0
 44 67  1  0
M  END
> <Name>
5481663

> <AbsoluteEnergy>
89.8524

> <ConfNumber>
1

> <Ionization pH>
7.04_PPP

> <IonizationIndex>
1

> <NumberOfIonizations>
2

> <NumberOfStereoisomers>
1

> <NumberOfTautomers>
4

> <OBJECTID>
9223375661810515981

> <PUBCHEM_ATOM_DEF_STEREO_COUNT>
10

> <PUBCHEM_ATOM_UDEF_STEREO_COUNT>
0

> <PUBCHEM_BONDANNOTATIONS>
24  10  5
11  30  8
11  34  8
17  26  5
22  2  5
27  28  6
29  30  8
29  31  8
31  32  8
32  34  8
32  35  8
33  37  8
33  38  8
34  36  8
35  39  8
36  40  8
37  41  8
38  42  8
39  40  8
18  4  6
41  43  8
42  43  8
19  5  5
25  6  5
20  7  6
21  8  6
23  9  6

> <PUBCHEM_BOND_DEF_STEREO_COUNT>
0

> <PUBCHEM_BOND_UDEF_STEREO_COUNT>
0

> <PUBCHEM_CACTVS_COMPLEXITY>
1040

> <PUBCHEM_CACTVS_HBOND_ACCEPTOR>
16

> <PUBCHEM_CACTVS_HBOND_DONOR>
9

> <PUBCHEM_CACTVS_ROTATABLE_BOND>
7

> <PUBCHEM_CACTVS_SUBSKEYS>
AAADcfB4PgAAAAAAAAAAAAAAAAAAAAAAAAA0aIECAAAAAACBQAAAGgAACAAADBSwmAMyDoAABgCIAqBSAAICCAAkIAAIiAFGiMgdNzaGNR6ieWOl4BUPuQfI7LzOIAABCAAIQABAAAIQABCAAAAAAAAAAA==

> <PUBCHEM_CACTVS_TAUTO_COUNT>
69

> <PUBCHEM_CACTVS_TPSA>
255

> <PUBCHEM_COMPONENT_COUNT>
1

> <PUBCHEM_COMPOUND_CANONICALIZED>
1

> <PUBCHEM_COMPOUND_CID>
5481663

> <PUBCHEM_COORDINATE_TYPE>
1
5
255

> <PUBCHEM_EXACT_MASS>
624.16903493

> <PUBCHEM_HEAVY_ATOM_COUNT>
44

> <PUBCHEM_ISOTOPIC_ATOM_COUNT>
0

> <PUBCHEM_IUPAC_CAS_NAME>
5,7-dihydroxy-2-(4-hydroxy-3-methoxyphenyl)-3-[[(2S,3R,4S,5S,6R)-3,4,5-trihydroxy-6-[[(2R,3R,4R,5R,6S)-3,4,5-trihydroxy-6-methyl-2-oxanyl]oxymethyl]-2-oxanyl]oxy]-1-benzopyran-4-one

> <PUBCHEM_IUPAC_INCHI>
InChI=1S/C28H32O16/c1-9-18(32)21(35)23(37)27(41-9)40-8-16-19(33)22(36)24(38)28(43-16)44-26-20(34)17-13(31)6-11(29)7-15(17)42-25(26)10-3-4-12(30)14(5-10)39-2/h3-7,9,16,18-19,21-24,27-33,35-38H,8H2,1-2H
3/t9-,16+,18-,19+,21+,22-,23+,24+,27+,28-/m0/s1

> <PUBCHEM_IUPAC_INCHIKEY>
UIDGLYUNOUKLBM-GEBJFKNCSA-N

> <PUBCHEM_IUPAC_NAME>
5,7-dihydroxy-2-(4-hydroxy-3-methoxyphenyl)-3-[(2S,3R,4S,5S,6R)-3,4,5-trihydroxy-6-[[(2R,3R,4R,5R,6S)-3,4,5-trihydroxy-6-methyloxan-2-yl]oxymethyl]oxan-2-yl]oxychromen-4-one

> <PUBCHEM_IUPAC_NAME_MARKUP>
5,7-dihydroxy-2-(4-hydroxy-3-methoxyphenyl)-3-[(2<I>S</I>,3<I>R</I>,4<I>S</I>,5<I>S</I>,6<I>R</I>)-3,4,5-trihydroxy-6-[[(2<I>R</I>,3<I>R</I>,4<I>R</I>,5<I>R</I>,6<I>S</I>)-3,4,5-trihydroxy-6-methyloxa
n-2-yl]oxymethyl]oxan-2-yl]oxychromen-4-one

> <PUBCHEM_IUPAC_OPENEYE_NAME>
5,7-dihydroxy-2-(4-hydroxy-3-methoxy-phenyl)-3-[(2S,3R,4S,5S,6R)-3,4,5-trihydroxy-6-[[(2R,3R,4R,5R,6S)-3,4,5-trihydroxy-6-methyl-tetrahydropyran-2-yl]oxymethyl]tetrahydropyran-2-yl]oxy-chromen-4-one

> <PUBCHEM_IUPAC_SYSTEMATIC_NAME>
2-(3-methoxy-4-oxidanyl-phenyl)-3-[(2S,3R,4S,5S,6R)-6-[[(2R,3R,4R,5R,6S)-6-methyl-3,4,5-tris(oxidanyl)oxan-2-yl]oxymethyl]-3,4,5-tris(oxidanyl)oxan-2-yl]oxy-5,7-bis(oxidanyl)chromen-4-one

> <PUBCHEM_IUPAC_TRADITIONAL_NAME>
5,7-dihydroxy-2-(4-hydroxy-3-methoxy-phenyl)-3-[(2S,3R,4S,5S,6R)-3,4,5-trihydroxy-6-[[(2R,3R,4R,5R,6S)-3,4,5-trihydroxy-6-methyl-tetrahydropyran-2-yl]oxymethyl]tetrahydropyran-2-yl]oxy-chromone

> <PUBCHEM_MOLECULAR_FORMULA>
C28H32O16

> <PUBCHEM_MOLECULAR_WEIGHT>
624.5

> <PUBCHEM_MONOISOTOPIC_WEIGHT>
624.16903493

> <PUBCHEM_OPENEYE_CAN_SMILES>
CC1C(C(C(C(O1)OCC2C(C(C(C(O2)OC3=C(OC4=CC(=CC(=C4C3=O)O)O)C5=CC(=C(C=C5)O)OC)O)O)O)O)O)O

> <PUBCHEM_OPENEYE_ISO_SMILES>
C[C@H]1[C@@H]([C@H]([C@H]([C@@H](O1)OC[C@@H]2[C@H]([C@@H]([C@H]([C@@H](O2)OC3=C(OC4=CC(=CC(=C4C3=O)O)O)C5=CC(=C(C=C5)O)OC)O)O)O)O)O)O

> <PUBCHEM_TOTAL_CHARGE>
0

> <PUBCHEM_XLOGP3_AA>
-1

> <RelativeEnergy>
0

> <StereoisomerIndex>
1

> <TautomerIndex>
2

> <LibDock Warning>
no hit found

> <ErrorText>
LibDock failed

$$$$
5481663
  SciTegic09112317153D

 76 80  0  0  0  0            999 V2000
    1.2080   -1.3170   -0.6090 O   0  0  0  1  0  0
   -0.4010   -1.3550    1.7160 O   0  0  0  1  0  0
   -0.7360   -1.3540    4.0080 O   0  0  0  1  0  0
    3.2960   -3.2980    1.6280 O   0  0  0  1  0  0
    4.9380   -3.1040   -0.7670 O   0  0  0  1  0  0
    1.1340   -0.9910   -2.8990 O   0  0  0  1  0  0
    3.3220   -2.8150   -3.1780 O   0  0  0  1  0  0
   -2.6980    0.7220    1.8460 O   0  0  0  1  0  0
   -4.5610    0.1780    3.7960 O   0  0  0  1  0  0
   -3.1350    0.0740    6.2790 O   0  0  0  1  0  0
   -1.2950    1.6020   -2.2790 O   0  0  0  1  0  0
   -1.1250   -2.5600   -2.5370 O   0  0  0  1  0  0
   -3.7350   -2.5620   -2.0280 O   0  0  0  1  0  0
   -5.9530    1.4630   -1.3540 O   0  0  0  1  0  0
    2.2090    4.6570   -4.6680 O   0  0  0  1  0  0
    4.5000    4.0530   -3.2970 O   0  0  0  1  0  0
    1.5070   -2.1330    0.5160 C   0  0  1  1  0  0
    3.0270   -2.4140    0.5580 C   0  0  2  1  0  0
    3.5210   -3.0290   -0.7700 C   0  0  1  1  0  0
    3.0440   -2.1590   -1.9530 C   0  0  2  1  0  0
   -2.5090   -0.4820    2.5730 C   0  0  1  1  0  0
   -0.9760   -0.6480    2.8000 C   0  0  2  1  0  0
   -3.3110   -0.4870    3.9100 C   0  0  1  1  0  0
   -2.4430    0.1050    5.0430 C   0  0  2  1  0  0
    1.5260   -1.8920   -1.8690 C   0  0  1  1  0  0
    1.0070   -1.3830    1.7580 C   0  0  0  1  0  0
   -1.0970   -0.6590    5.2010 C   0  0  2  1  0  0
    0.0640    0.2700    5.5820 C   0  0  0  1  0  0
   -0.0300   -0.3970   -2.6370 C   0  0  0  1  0  0
   -0.1370    0.9520   -2.5430 C   0  0  0  1  0  0
   -1.2250   -1.2350   -2.4460 C   0  0  0  1  0  0
   -2.3970   -0.6240   -2.1820 C   0  0  0  1  0  0
    1.0950    1.7760   -2.7430 C   0  0  0  1  0  0
   -2.4080    0.8570   -2.0980 C   0  0  0  1  0  0
   -3.6690   -1.3540   -1.9700 C   0  0  0  1  0  0
   -3.5680    1.4950   -1.8300 C   0  0  0  1  0  0
    1.0790    2.8620   -3.6370 C   0  0  0  1  0  0
    2.2730    1.4660   -2.0410 C   0  0  0  1  0  0
   -4.8830   -0.5700   -1.6820 C   0  0  0  1  0  0
   -4.8430    0.7770   -1.6150 C   0  0  0  1  0  0
    2.2340    3.6410   -3.8300 C   0  0  0  1  0  0
    3.4280    2.2430   -2.2330 C   0  0  0  1  0  0
    3.4120    3.3300   -3.1250 C   0  0  0  1  0  0
    1.0570    4.8270   -5.4780 C   0  0  0  1  0  0
    0.9460   -3.0640    0.4080 H   0  0  0  1  0  0
    3.5600   -1.4840    0.7610 H   0  0  0  1  0  0
    3.1330   -4.0440   -0.8750 H   0  0  0  1  0  0
    3.5780   -1.2080   -1.9620 H   0  0  0  1  0  0
   -2.9040   -1.2840    1.9460 H   0  0  0  1  0  0
   -0.4570    0.3100    2.8730 H   0  0  0  1  0  0
   -3.5440   -1.5230    4.1630 H   0  0  0  1  0  0
   -2.2460    1.1550    4.8160 H   0  0  0  1  0  0
    0.9480   -2.8110   -1.9870 H   0  0  0  1  0  0
    1.3680   -0.3550    1.7560 H   0  0  0  1  0  0
    1.3110   -1.9000    2.6680 H   0  0  0  1  0  0
   -1.1740   -1.4400    5.9610 H   0  0  0  1  0  0
    1.0110   -0.2660    5.6390 H   0  0  0  1  0  0
   -0.1160    0.7320    6.5530 H   0  0  0  1  0  0
    0.1740    1.0670    4.8490 H   0  0  0  1  0  0
   -3.5690    2.5740   -1.7710 H   0  0  0  1  0  0
    0.1760    3.1060   -4.1800 H   0  0  0  1  0  0
    2.2970    0.6340   -1.3530 H   0  0  0  1  0  0
   -5.8200   -1.0820   -1.5230 H   0  0  0  1  0  0
    4.3310    2.0040   -1.6910 H   0  0  0  1  0  0
    1.2100    5.7010   -6.1110 H   0  0  0  1  0  0
    0.8610    3.8870   -5.9920 H   0  0  0  1  0  0
    0.2070    5.0320   -4.8260 H   0  0  0  1  0  0
    3.3610   -2.7630    2.4350 H   0  0  0  1  0  0
    5.1880   -3.8070   -0.1450 H   0  0  0  1  0  0
    3.2170   -2.1610   -3.8880 H   0  0  0  1  0  0
   -2.2990    0.5930    0.9700 H   0  0  0  1  0  0
   -5.0990   -0.0930    4.5570 H   0  0  0  1  0  0
   -2.5910    0.5560    6.9220 H   0  0  0  1  0  0
   -5.9120    2.4270   -1.3080 H   0  0  0  1  0  0
    4.4810    4.7980   -3.9120 H   0  0  0  1  0  0
   -0.5810   -2.9460   -3.2380 H   0  0  0  1  0  0
  1 17  1  0
  1 25  1  0
  2 22  1  0
  2 26  1  0
  3 22  1  0
  3 27  1  0
  4 18  1  0
  4 68  1  0
  5 19  1  0
  5 69  1  0
  6 25  1  0
  6 29  1  0
  7 20  1  0
  7 70  1  0
  8 21  1  0
  8 71  1  0
  9 23  1  0
  9 72  1  0
 10 24  1  0
 10 73  1  0
 11 30  1  0
 11 34  1  0
 12 31  1  0
 12 76  1  0
 13 35  2  0
 14 40  1  0
 14 74  1  0
 15 41  1  0
 15 44  1  0
 16 43  1  0
 16 75  1  0
 17 18  1  0
 17 26  1  0
 17 45  1  0
 18 19  1  0
 18 46  1  0
 19 20  1  0
 19 47  1  0
 20 25  1  0
 20 48  1  0
 21 22  1  0
 21 23  1  0
 21 49  1  0
 22 50  1  0
 23 24  1  0
 23 51  1  0
 24 27  1  0
 24 52  1  0
 25 53  1  0
 26 54  1  0
 26 55  1  0
 27 28  1  0
 27 56  1  0
 28 57  1  0
 28 58  1  0
 28 59  1  0
 29 30  2  0
 29 31  1  0
 30 33  1  0
 31 32  2  0
 32 34  1  0
 32 35  1  0
 33 37  2  0
 33 38  1  0
 34 36  2  0
 35 39  1  0
 36 40  1  0
 36 60  1  0
 37 41  1  0
 37 61  1  0
 38 42  2  0
 38 62  1  0
 39 40  2  0
 39 63  1  0
 41 43  2  0
 42 43  1  0
 42 64  1  0
 44 65  1  0
 44 66  1  0
 44 67  1  0
M  END
> <Name>
5481663

> <AbsoluteEnergy>
61.0146

> <ConfNumber>
1

> <Ionization pH>
7.04_PPP

> <IonizationIndex>
1

> <NumberOfIonizations>
2

> <NumberOfStereoisomers>
1

> <NumberOfTautomers>
4

> <OBJECTID>
9223375666105483277

> <PUBCHEM_ATOM_DEF_STEREO_COUNT>
10

> <PUBCHEM_ATOM_UDEF_STEREO_COUNT>
0

> <PUBCHEM_BONDANNOTATIONS>
24  10  5
11  30  8
11  34  8
17  26  5
22  2  5
27  28  6
29  30  8
29  31  8
31  32  8
32  34  8
32  35  8
33  37  8
33  38  8
34  36  8
35  39  8
36  40  8
37  41  8
38  42  8
39  40  8
18  4  6
41  43  8
42  43  8
19  5  5
25  6  5
20  7  6
21  8  6
23  9  6

> <PUBCHEM_BOND_DEF_STEREO_COUNT>
0

> <PUBCHEM_BOND_UDEF_STEREO_COUNT>
0

> <PUBCHEM_CACTVS_COMPLEXITY>
1040

> <PUBCHEM_CACTVS_HBOND_ACCEPTOR>
16

> <PUBCHEM_CACTVS_HBOND_DONOR>
9

> <PUBCHEM_CACTVS_ROTATABLE_BOND>
7

> <PUBCHEM_CACTVS_SUBSKEYS>
AAADcfB4PgAAAAAAAAAAAAAAAAAAAAAAAAA0aIECAAAAAACBQAAAGgAACAAADBSwmAMyDoAABgCIAqBSAAICCAAkIAAIiAFGiMgdNzaGNR6ieWOl4BUPuQfI7LzOIAABCAAIQABAAAIQABCAAAAAAAAAAA==

> <PUBCHEM_CACTVS_TAUTO_COUNT>
69

> <PUBCHEM_CACTVS_TPSA>
255

> <PUBCHEM_COMPONENT_COUNT>
1

> <PUBCHEM_COMPOUND_CANONICALIZED>
1

> <PUBCHEM_COMPOUND_CID>
5481663

> <PUBCHEM_COORDINATE_TYPE>
1
5
255

> <PUBCHEM_EXACT_MASS>
624.16903493

> <PUBCHEM_HEAVY_ATOM_COUNT>
44

> <PUBCHEM_ISOTOPIC_ATOM_COUNT>
0

> <PUBCHEM_IUPAC_CAS_NAME>
5,7-dihydroxy-2-(4-hydroxy-3-methoxyphenyl)-3-[[(2S,3R,4S,5S,6R)-3,4,5-trihydroxy-6-[[(2R,3R,4R,5R,6S)-3,4,5-trihydroxy-6-methyl-2-oxanyl]oxymethyl]-2-oxanyl]oxy]-1-benzopyran-4-one

> <PUBCHEM_IUPAC_INCHI>
InChI=1S/C28H32O16/c1-9-18(32)21(35)23(37)27(41-9)40-8-16-19(33)22(36)24(38)28(43-16)44-26-20(34)17-13(31)6-11(29)7-15(17)42-25(26)10-3-4-12(30)14(5-10)39-2/h3-7,9,16,18-19,21-24,27-33,35-38H,8H2,1-2H
3/t9-,16+,18-,19+,21+,22-,23+,24+,27+,28-/m0/s1

> <PUBCHEM_IUPAC_INCHIKEY>
UIDGLYUNOUKLBM-GEBJFKNCSA-N

> <PUBCHEM_IUPAC_NAME>
5,7-dihydroxy-2-(4-hydroxy-3-methoxyphenyl)-3-[(2S,3R,4S,5S,6R)-3,4,5-trihydroxy-6-[[(2R,3R,4R,5R,6S)-3,4,5-trihydroxy-6-methyloxan-2-yl]oxymethyl]oxan-2-yl]oxychromen-4-one

> <PUBCHEM_IUPAC_NAME_MARKUP>
5,7-dihydroxy-2-(4-hydroxy-3-methoxyphenyl)-3-[(2<I>S</I>,3<I>R</I>,4<I>S</I>,5<I>S</I>,6<I>R</I>)-3,4,5-trihydroxy-6-[[(2<I>R</I>,3<I>R</I>,4<I>R</I>,5<I>R</I>,6<I>S</I>)-3,4,5-trihydroxy-6-methyloxa
n-2-yl]oxymethyl]oxan-2-yl]oxychromen-4-one

> <PUBCHEM_IUPAC_OPENEYE_NAME>
5,7-dihydroxy-2-(4-hydroxy-3-methoxy-phenyl)-3-[(2S,3R,4S,5S,6R)-3,4,5-trihydroxy-6-[[(2R,3R,4R,5R,6S)-3,4,5-trihydroxy-6-methyl-tetrahydropyran-2-yl]oxymethyl]tetrahydropyran-2-yl]oxy-chromen-4-one

> <PUBCHEM_IUPAC_SYSTEMATIC_NAME>
2-(3-methoxy-4-oxidanyl-phenyl)-3-[(2S,3R,4S,5S,6R)-6-[[(2R,3R,4R,5R,6S)-6-methyl-3,4,5-tris(oxidanyl)oxan-2-yl]oxymethyl]-3,4,5-tris(oxidanyl)oxan-2-yl]oxy-5,7-bis(oxidanyl)chromen-4-one

> <PUBCHEM_IUPAC_TRADITIONAL_NAME>
5,7-dihydroxy-2-(4-hydroxy-3-methoxy-phenyl)-3-[(2S,3R,4S,5S,6R)-3,4,5-trihydroxy-6-[[(2R,3R,4R,5R,6S)-3,4,5-trihydroxy-6-methyl-tetrahydropyran-2-yl]oxymethyl]tetrahydropyran-2-yl]oxy-chromone

> <PUBCHEM_MOLECULAR_FORMULA>
C28H32O16

> <PUBCHEM_MOLECULAR_WEIGHT>
624.5

> <PUBCHEM_MONOISOTOPIC_WEIGHT>
624.16903493

> <PUBCHEM_OPENEYE_CAN_SMILES>
CC1C(C(C(C(O1)OCC2C(C(C(C(O2)OC3=C(OC4=CC(=CC(=C4C3=O)O)O)C5=CC(=C(C=C5)O)OC)O)O)O)O)O)O

> <PUBCHEM_OPENEYE_ISO_SMILES>
C[C@H]1[C@@H]([C@H]([C@H]([C@@H](O1)OC[C@@H]2[C@H]([C@@H]([C@H]([C@@H](O2)OC3=C(OC4=CC(=CC(=C4C3=O)O)O)C5=CC(=C(C=C5)O)OC)O)O)O)O)O)O

> <PUBCHEM_TOTAL_CHARGE>
0

> <PUBCHEM_XLOGP3_AA>
-1

> <RelativeEnergy>
0

> <StereoisomerIndex>
1

> <TautomerIndex>
3

> <LibDock Warning>
no hit found

> <ErrorText>
LibDock failed

$$$$
5481663
  SciTegic09112317153D

 76 80  0  0  0  0            999 V2000
    0.3640    2.8800   -1.1170 O   0  0  0  1  0  0
    0.3630   -0.0620   -3.2130 O   0  0  0  1  0  0
    0.3350   -2.0680   -4.3680 O   0  0  0  1  0  0
    2.9420    3.1550   -2.5940 O   0  0  0  1  0  0
    2.8000    0.3360   -0.3350 O   0  0  0  1  0  0
    0.1870    1.3540    0.6600 O   0  0  0  1  0  0
    2.7730    3.8900    0.3270 O   0  0  0  1  0  0
   -1.4820   -1.6630   -1.3050 O   0  0  0  1  0  0
   -3.1410   -3.4270   -2.6120 O   0  0  0  1  0  0
   -1.4450   -5.1840   -4.1110 O   0  0  0  1  0  0
   -1.2430    1.0970    3.9640 O   0  0  0  1  0  0
   -2.0710    2.8860    0.2860 O   0  0  0  1  0  0
   -4.4280    3.6230    1.1960 O   0  0  0  1  0  0
   -4.8970    3.2870    5.8130 O   0  0  0  1  0  0
    2.4660   -2.6470    1.2890 O   0  0  0  1  0  0
    4.0600   -2.4070    3.4990 O   0  0  0  1  0  0
    0.8700    1.9990   -2.1230 C   0  0  1  1  0  0
    2.4180    1.9400   -2.0870 C   0  0  2  1  0  0
    2.9870    1.6980   -0.6690 C   0  0  1  1  0  0
    2.2780    2.5670    0.3970 C   0  0  2  1  0  0
   -1.4220   -1.6470   -2.7240 C   0  0  1  1  0  0
    0.0740   -1.4420   -3.1200 C   0  0  2  1  0  0
   -2.0280   -2.9400   -3.3480 C   0  0  1  1  0  0
   -0.9280   -4.0120   -3.5070 C   0  0  2  1  0  0
    0.7410    2.5900    0.2280 C   0  0  1  1  0  0
    0.2080    0.6230   -1.9900 C   0  0  0  1  0  0
    0.2680   -3.4930   -4.3590 C   0  0  2  1  0  0
    1.6150   -4.0350   -3.8700 C   0  0  0  1  0  0
   -0.6550    1.5030    1.6860 C   0  0  0  1  0  0
   -0.4380    0.9220    2.8910 C   0  0  0  1  0  0
   -1.8530    2.3270    1.4790 C   0  0  0  1  0  0
   -2.7050    2.4840    2.5120 C   0  0  0  1  0  0
    0.7560    0.0370    3.0530 C   0  0  0  1  0  0
   -2.3240    1.8900    3.8180 C   0  0  0  1  0  0
   -3.9900    3.2090    2.3850 C   0  0  0  1  0  0
   -3.0740    2.1490    4.9090 C   0  0  0  1  0  0
    1.0640   -0.9200    2.0680 C   0  0  0  1  0  0
    1.5770    0.1590    4.1880 C   0  0  0  1  0  0
   -4.7280    3.4430    3.4890 C   0  0  0  1  0  0
   -4.2830    2.9840    4.8210 C   0  0  0  1  0  0
    2.1850   -1.7540    2.2160 C   0  0  0  1  0  0
    2.6990   -0.6730    4.3370 C   0  0  0  1  0  0
    3.0060   -1.6300    3.3520 C   0  0  0  1  0  0
    1.9550   -3.9610    1.4530 C   0  0  0  1  0  0
    0.5420    2.4120   -3.0800 H   0  0  0  1  0  0
    2.7720    1.1720   -2.7770 H   0  0  0  1  0  0
    4.0670    1.8540   -0.6470 H   0  0  0  1  0  0
    2.5320    2.2200    1.4010 H   0  0  0  1  0  0
   -2.0340   -0.8030   -3.0470 H   0  0  0  1  0  0
    0.7630   -1.8700   -2.3880 H   0  0  0  1  0  0
   -2.4110   -2.6930   -4.3410 H   0  0  0  1  0  0
   -0.5740   -4.2960   -2.5140 H   0  0  0  1  0  0
    0.3000    3.3650    0.8580 H   0  0  0  1  0  0
   -0.8600    0.7270   -1.7920 H   0  0  0  1  0  0
    0.6930    0.0370   -1.2110 H   0  0  0  1  0  0
    0.1490   -3.7670   -5.4090 H   0  0  0  1  0  0
    2.4490   -3.6170   -4.4330 H   0  0  0  1  0  0
    1.6550   -5.1200   -3.9720 H   0  0  0  1  0  0
    1.7690   -3.7930   -2.8180 H   0  0  0  1  0  0
   -2.7840    1.7360    5.8670 H   0  0  0  1  0  0
    0.4370   -1.0190    1.1910 H   0  0  0  1  0  0
    1.3490    0.8920    4.9490 H   0  0  0  1  0  0
   -5.6660    3.9740    3.4020 H   0  0  0  1  0  0
    3.3260   -0.5760    5.2110 H   0  0  0  1  0  0
    2.2250   -4.5460    0.5740 H   0  0  0  1  0  0
    2.3020   -4.3460    2.4120 H   0  0  0  1  0  0
    0.8670   -3.9030    1.4940 H   0  0  0  1  0  0
    2.7090    3.1970   -3.5360 H   0  0  0  1  0  0
    3.3770   -0.1830   -0.9180 H   0  0  0  1  0  0
    2.4320    4.3660    1.1000 H   0  0  0  1  0  0
   -2.1290   -0.9910   -1.0390 H   0  0  0  1  0  0
   -3.6380   -4.0180   -3.2010 H   0  0  0  1  0  0
   -0.7580   -5.8650   -4.0500 H   0  0  0  1  0  0
   -5.2740    4.0860    1.1390 H   0  0  0  1  0  0
    4.2750   -3.0470    2.8070 H   0  0  0  1  0  0
   -2.5320    3.7330    0.2370 H   0  0  0  1  0  0
  1 17  1  0
  1 25  1  0
  2 22  1  0
  2 26  1  0
  3 22  1  0
  3 27  1  0
  4 18  1  0
  4 68  1  0
  5 19  1  0
  5 69  1  0
  6 25  1  0
  6 29  1  0
  7 20  1  0
  7 70  1  0
  8 21  1  0
  8 71  1  0
  9 23  1  0
  9 72  1  0
 10 24  1  0
 10 73  1  0
 11 30  1  0
 11 34  1  0
 12 31  1  0
 12 76  1  0
 13 35  1  0
 13 74  1  0
 14 40  2  0
 15 41  1  0
 15 44  1  0
 16 43  1  0
 16 75  1  0
 17 18  1  0
 17 26  1  0
 17 45  1  0
 18 19  1  0
 18 46  1  0
 19 20  1  0
 19 47  1  0
 20 25  1  0
 20 48  1  0
 21 22  1  0
 21 23  1  0
 21 49  1  0
 22 50  1  0
 23 24  1  0
 23 51  1  0
 24 27  1  0
 24 52  1  0
 25 53  1  0
 26 54  1  0
 26 55  1  0
 27 28  1  0
 27 56  1  0
 28 57  1  0
 28 58  1  0
 28 59  1  0
 29 30  2  0
 29 31  1  0
 30 33  1  0
 31 32  2  0
 32 34  1  0
 32 35  1  0
 33 37  2  0
 33 38  1  0
 34 36  2  0
 35 39  2  0
 36 40  1  0
 36 60  1  0
 37 41  1  0
 37 61  1  0
 38 42  2  0
 38 62  1  0
 39 40  1  0
 39 63  1  0
 41 43  2  0
 42 43  1  0
 42 64  1  0
 44 65  1  0
 44 66  1  0
 44 67  1  0
M  END
> <Name>
5481663

> <AbsoluteEnergy>
67.0944

> <ConfNumber>
1

> <Ionization pH>
7.04_PPP

> <IonizationIndex>
1

> <NumberOfIonizations>
2

> <NumberOfStereoisomers>
1

> <NumberOfTautomers>
4

> <OBJECTID>
9223375670400450573

> <PUBCHEM_ATOM_DEF_STEREO_COUNT>
10

> <PUBCHEM_ATOM_UDEF_STEREO_COUNT>
0

> <PUBCHEM_BONDANNOTATIONS>
24  10  5
11  30  8
11  34  8
17  26  5
22  2  5
27  28  6
29  30  8
29  31  8
31  32  8
32  34  8
32  35  8
33  37  8
33  38  8
34  36  8
35  39  8
36  40  8
37  41  8
38  42  8
39  40  8
18  4  6
41  43  8
42  43  8
19  5  5
25  6  5
20  7  6
21  8  6
23  9  6

> <PUBCHEM_BOND_DEF_STEREO_COUNT>
0

> <PUBCHEM_BOND_UDEF_STEREO_COUNT>
0

> <PUBCHEM_CACTVS_COMPLEXITY>
1040

> <PUBCHEM_CACTVS_HBOND_ACCEPTOR>
16

> <PUBCHEM_CACTVS_HBOND_DONOR>
9

> <PUBCHEM_CACTVS_ROTATABLE_BOND>
7

> <PUBCHEM_CACTVS_SUBSKEYS>
AAADcfB4PgAAAAAAAAAAAAAAAAAAAAAAAAA0aIECAAAAAACBQAAAGgAACAAADBSwmAMyDoAABgCIAqBSAAICCAAkIAAIiAFGiMgdNzaGNR6ieWOl4BUPuQfI7LzOIAABCAAIQABAAAIQABCAAAAAAAAAAA==

> <PUBCHEM_CACTVS_TAUTO_COUNT>
69

> <PUBCHEM_CACTVS_TPSA>
255

> <PUBCHEM_COMPONENT_COUNT>
1

> <PUBCHEM_COMPOUND_CANONICALIZED>
1

> <PUBCHEM_COMPOUND_CID>
5481663

> <PUBCHEM_COORDINATE_TYPE>
1
5
255

> <PUBCHEM_EXACT_MASS>
624.16903493

> <PUBCHEM_HEAVY_ATOM_COUNT>
44

> <PUBCHEM_ISOTOPIC_ATOM_COUNT>
0

> <PUBCHEM_IUPAC_CAS_NAME>
5,7-dihydroxy-2-(4-hydroxy-3-methoxyphenyl)-3-[[(2S,3R,4S,5S,6R)-3,4,5-trihydroxy-6-[[(2R,3R,4R,5R,6S)-3,4,5-trihydroxy-6-methyl-2-oxanyl]oxymethyl]-2-oxanyl]oxy]-1-benzopyran-4-one

> <PUBCHEM_IUPAC_INCHI>
InChI=1S/C28H32O16/c1-9-18(32)21(35)23(37)27(41-9)40-8-16-19(33)22(36)24(38)28(43-16)44-26-20(34)17-13(31)6-11(29)7-15(17)42-25(26)10-3-4-12(30)14(5-10)39-2/h3-7,9,16,18-19,21-24,27-33,35-38H,8H2,1-2H
3/t9-,16+,18-,19+,21+,22-,23+,24+,27+,28-/m0/s1

> <PUBCHEM_IUPAC_INCHIKEY>
UIDGLYUNOUKLBM-GEBJFKNCSA-N

> <PUBCHEM_IUPAC_NAME>
5,7-dihydroxy-2-(4-hydroxy-3-methoxyphenyl)-3-[(2S,3R,4S,5S,6R)-3,4,5-trihydroxy-6-[[(2R,3R,4R,5R,6S)-3,4,5-trihydroxy-6-methyloxan-2-yl]oxymethyl]oxan-2-yl]oxychromen-4-one

> <PUBCHEM_IUPAC_NAME_MARKUP>
5,7-dihydroxy-2-(4-hydroxy-3-methoxyphenyl)-3-[(2<I>S</I>,3<I>R</I>,4<I>S</I>,5<I>S</I>,6<I>R</I>)-3,4,5-trihydroxy-6-[[(2<I>R</I>,3<I>R</I>,4<I>R</I>,5<I>R</I>,6<I>S</I>)-3,4,5-trihydroxy-6-methyloxa
n-2-yl]oxymethyl]oxan-2-yl]oxychromen-4-one

> <PUBCHEM_IUPAC_OPENEYE_NAME>
5,7-dihydroxy-2-(4-hydroxy-3-methoxy-phenyl)-3-[(2S,3R,4S,5S,6R)-3,4,5-trihydroxy-6-[[(2R,3R,4R,5R,6S)-3,4,5-trihydroxy-6-methyl-tetrahydropyran-2-yl]oxymethyl]tetrahydropyran-2-yl]oxy-chromen-4-one

> <PUBCHEM_IUPAC_SYSTEMATIC_NAME>
2-(3-methoxy-4-oxidanyl-phenyl)-3-[(2S,3R,4S,5S,6R)-6-[[(2R,3R,4R,5R,6S)-6-methyl-3,4,5-tris(oxidanyl)oxan-2-yl]oxymethyl]-3,4,5-tris(oxidanyl)oxan-2-yl]oxy-5,7-bis(oxidanyl)chromen-4-one

> <PUBCHEM_IUPAC_TRADITIONAL_NAME>
5,7-dihydroxy-2-(4-hydroxy-3-methoxy-phenyl)-3-[(2S,3R,4S,5S,6R)-3,4,5-trihydroxy-6-[[(2R,3R,4R,5R,6S)-3,4,5-trihydroxy-6-methyl-tetrahydropyran-2-yl]oxymethyl]tetrahydropyran-2-yl]oxy-chromone

> <PUBCHEM_MOLECULAR_FORMULA>
C28H32O16

> <PUBCHEM_MOLECULAR_WEIGHT>
624.5

> <PUBCHEM_MONOISOTOPIC_WEIGHT>
624.16903493

> <PUBCHEM_OPENEYE_CAN_SMILES>
CC1C(C(C(C(O1)OCC2C(C(C(C(O2)OC3=C(OC4=CC(=CC(=C4C3=O)O)O)C5=CC(=C(C=C5)O)OC)O)O)O)O)O)O

> <PUBCHEM_OPENEYE_ISO_SMILES>
C[C@H]1[C@@H]([C@H]([C@H]([C@@H](O1)OC[C@@H]2[C@H]([C@@H]([C@H]([C@@H](O2)OC3=C(OC4=CC(=CC(=C4C3=O)O)O)C5=CC(=C(C=C5)O)OC)O)O)O)O)O)O

> <PUBCHEM_TOTAL_CHARGE>
0

> <PUBCHEM_XLOGP3_AA>
-1

> <RelativeEnergy>
0

> <StereoisomerIndex>
1

> <TautomerIndex>
4

> <LibDock Warning>
no hit found

> <ErrorText>
LibDock failed

$$$$
5481663
  SciTegic09112317153D

 75 79  0  0  0  0            999 V2000
    0.1280   -0.5130   -0.1530 O   0  0  0  1  0  0
   -0.9990   -1.2110   -3.4780 O   0  0  0  1  0  0
    0.5260   -1.8070   -5.1150 O   0  0  0  1  0  0
   -0.7690    1.5980   -2.9900 O   0  0  0  1  0  0
    0.2100    3.5290   -1.0450 O   0  0  0  1  0  0
    0.4510   -0.1410    2.1070 O   0  0  0  1  0  0
   -0.1880    2.6170    1.6970 O   0  0  0  1  0  0
   -2.8060   -3.1220   -5.1150 O   0  0  0  1  0  0
   -2.3350   -3.0230   -7.8240 O   0  0  0  1  0  0
    0.4310   -3.6630   -8.1950 O   0  0  0  1  0  0
   -0.2530    1.4450    5.2690 O   0  0  0  1  0  0
   -2.0570   -1.2160    2.6090 O   0  0  0  1  0  0
   -4.1110   -1.2950    4.2950 O   0  0  0  1  0  0
   -3.9770    1.2020    8.2080 O   0  0  0  1  0  0
    4.9150    0.5810    2.4620 O   0  0  0  1  0  0
    5.4810    3.2210    3.0110 O   0  5  0  1  0  0
   -0.4980   -0.1770   -1.3860 C   0  0  1  1  0  0
   -0.0680    1.2430   -1.8120 C   0  0  2  1  0  0
   -0.3590    2.2760   -0.7000 C   0  0  1  1  0  0
    0.2380    1.7810    0.6350 C   0  0  2  1  0  0
   -1.8490   -2.1690   -5.5490 C   0  0  1  1  0  0
   -0.7020   -2.1510   -4.4920 C   0  0  2  1  0  0
   -1.3260   -2.4800   -6.9850 C   0  0  1  1  0  0
   -0.0880   -3.3980   -6.9040 C   0  0  2  1  0  0
   -0.2050    0.3320    0.9390 C   0  0  1  1  0  0
   -0.0890   -1.2500   -2.4000 C   0  0  0  1  0  0
    1.0390   -2.7770   -6.0260 C   0  0  2  1  0  0
    1.8070   -3.8340   -5.2240 C   0  0  0  1  0  0
   -0.1880    0.2040    3.2250 C   0  0  0  1  0  0
    0.3550    1.0660    4.1200 C   0  0  0  1  0  0
   -1.5180   -0.3710    3.4860 C   0  0  0  1  0  0
   -2.1560   -0.0160    4.6190 C   0  0  0  1  0  0
    1.7070    1.6340    3.8260 C   0  0  0  1  0  0
   -1.4740    0.9320    5.5350 C   0  0  0  1  0  0
   -3.4960   -0.5230    4.9950 C   0  0  0  1  0  0
   -2.0890    1.3020    6.6790 C   0  0  0  1  0  0
    2.7080    0.8180    3.2650 C   0  0  0  1  0  0
    1.9820    2.9840    4.1110 C   0  0  0  1  0  0
   -4.0850   -0.0630    6.2650 C   0  0  0  1  0  0
   -3.4250    0.8000    7.0660 C   0  0  0  1  0  0
    3.9820    1.3480    2.9890 C   0  0  0  1  0  0
    3.2530    3.5150    3.8360 C   0  0  0  1  0  0
    4.2530    2.7000    3.2760 C   0  0  0  1  0  0
    5.7430    1.1360    1.4500 C   0  0  0  1  0  0
   -1.5770   -0.2250   -1.2310 H   0  0  0  1  0  0
    0.9970    1.2440   -2.0540 H   0  0  0  1  0  0
   -1.4360    2.4160   -0.5950 H   0  0  0  1  0  0
    1.3280    1.8230    0.6020 H   0  0  0  1  0  0
   -2.3670   -1.2080   -5.5870 H   0  0  0  1  0  0
   -0.5640   -3.1200   -4.0070 H   0  0  0  1  0  0
   -1.0250   -1.5380   -7.4490 H   0  0  0  1  0  0
   -0.3940   -4.3580   -6.4830 H   0  0  0  1  0  0
   -1.2830    0.2690    1.1070 H   0  0  0  1  0  0
   -0.1360   -2.2420   -1.9540 H   0  0  0  1  0  0
    0.9100   -1.0490   -2.7930 H   0  0  0  1  0  0
    1.7550   -2.2260   -6.6390 H   0  0  0  1  0  0
    2.5640   -3.3840   -4.5830 H   0  0  0  1  0  0
    2.3080   -4.5350   -5.8880 H   0  0  0  1  0  0
    1.1270   -4.4010   -4.5890 H   0  0  0  1  0  0
   -1.5870    1.9930    7.3410 H   0  0  0  1  0  0
    2.5020   -0.2200    3.0450 H   0  0  0  1  0  0
    1.2200    3.6180    4.5390 H   0  0  0  1  0  0
   -5.0590   -0.4210    6.5590 H   0  0  0  1  0  0
    3.4610    4.5530    4.0540 H   0  0  0  1  0  0
    5.1320    1.7960    0.8350 H   0  0  0  1  0  0
    6.6100    1.5870    1.9300 H   0  0  0  1  0  0
    6.0970    0.3240    0.8160 H   0  0  0  1  0  0
   -0.1740    1.4340   -3.7380 H   0  0  0  1  0  0
   -0.3610    3.9270   -1.7220 H   0  0  0  1  0  0
    0.3130    3.4450    1.6340 H   0  0  0  1  0  0
   -3.1760   -2.7950   -4.2790 H   0  0  0  1  0  0
   -2.0080   -2.9710   -8.7350 H   0  0  0  1  0  0
    1.0580   -4.4000   -8.1070 H   0  0  0  1  0  0
   -4.8500    0.8690    8.4540 H   0  0  0  1  0  0
   -2.5950   -1.9510    2.9290 H   0  0  0  1  0  0
  1 17  1  0
  1 25  1  0
  2 22  1  0
  2 26  1  0
  3 22  1  0
  3 27  1  0
  4 18  1  0
  4 68  1  0
  5 19  1  0
  5 69  1  0
  6 25  1  0
  6 29  1  0
  7 20  1  0
  7 70  1  0
  8 21  1  0
  8 71  1  0
  9 23  1  0
  9 72  1  0
 10 24  1  0
 10 73  1  0
 11 30  1  0
 11 34  1  0
 12 31  1  0
 12 75  1  0
 13 35  2  0
 14 40  1  0
 14 74  1  0
 15 41  1  0
 15 44  1  0
 16 43  1  0
 17 18  1  0
 17 26  1  0
 17 45  1  0
 18 19  1  0
 18 46  1  0
 19 20  1  0
 19 47  1  0
 20 25  1  0
 20 48  1  0
 21 22  1  0
 21 23  1  0
 21 49  1  0
 22 50  1  0
 23 24  1  0
 23 51  1  0
 24 27  1  0
 24 52  1  0
 25 53  1  0
 26 54  1  0
 26 55  1  0
 27 28  1  0
 27 56  1  0
 28 57  1  0
 28 58  1  0
 28 59  1  0
 29 30  2  0
 29 31  1  0
 30 33  1  0
 31 32  2  0
 32 34  1  0
 32 35  1  0
 33 37  2  0
 33 38  1  0
 34 36  2  0
 35 39  1  0
 36 40  1  0
 36 60  1  0
 37 41  1  0
 37 61  1  0
 38 42  2  0
 38 62  1  0
 39 40  2  0
 39 63  1  0
 41 43  2  0
 42 43  1  0
 42 64  1  0
 44 65  1  0
 44 66  1  0
 44 67  1  0
M  CHG  1  16  -1
M  END
> <Name>
5481663

> <AbsoluteEnergy>
62.2803

> <ConfNumber>
1

> <Ionization pH>
7.04_DPP

> <IonizationIndex>
2

> <NumberOfIonizations>
2

> <NumberOfStereoisomers>
1

> <NumberOfTautomers>
3

> <OBJECTID>
9223375678990385165

> <PUBCHEM_ATOM_DEF_STEREO_COUNT>
10

> <PUBCHEM_ATOM_UDEF_STEREO_COUNT>
0

> <PUBCHEM_BONDANNOTATIONS>
24  10  5
11  30  8
11  34  8
17  26  5
22  2  5
27  28  6
29  30  8
29  31  8
31  32  8
32  34  8
32  35  8
33  37  8
33  38  8
34  36  8
35  39  8
36  40  8
37  41  8
38  42  8
39  40  8
18  4  6
41  43  8
42  43  8
19  5  5
25  6  5
20  7  6
21  8  6
23  9  6

> <PUBCHEM_BOND_DEF_STEREO_COUNT>
0

> <PUBCHEM_BOND_UDEF_STEREO_COUNT>
0

> <PUBCHEM_CACTVS_COMPLEXITY>
1040

> <PUBCHEM_CACTVS_HBOND_ACCEPTOR>
16

> <PUBCHEM_CACTVS_HBOND_DONOR>
9

> <PUBCHEM_CACTVS_ROTATABLE_BOND>
7

> <PUBCHEM_CACTVS_SUBSKEYS>
AAADcfB4PgAAAAAAAAAAAAAAAAAAAAAAAAA0aIECAAAAAACBQAAAGgAACAAADBSwmAMyDoAABgCIAqBSAAICCAAkIAAIiAFGiMgdNzaGNR6ieWOl4BUPuQfI7LzOIAABCAAIQABAAAIQABCAAAAAAAAAAA==

> <PUBCHEM_CACTVS_TAUTO_COUNT>
69

> <PUBCHEM_CACTVS_TPSA>
255

> <PUBCHEM_COMPONENT_COUNT>
1

> <PUBCHEM_COMPOUND_CANONICALIZED>
1

> <PUBCHEM_COMPOUND_CID>
5481663

> <PUBCHEM_COORDINATE_TYPE>
1
5
255

> <PUBCHEM_EXACT_MASS>
624.16903493

> <PUBCHEM_HEAVY_ATOM_COUNT>
44

> <PUBCHEM_ISOTOPIC_ATOM_COUNT>
0

> <PUBCHEM_IUPAC_CAS_NAME>
5,7-dihydroxy-2-(4-hydroxy-3-methoxyphenyl)-3-[[(2S,3R,4S,5S,6R)-3,4,5-trihydroxy-6-[[(2R,3R,4R,5R,6S)-3,4,5-trihydroxy-6-methyl-2-oxanyl]oxymethyl]-2-oxanyl]oxy]-1-benzopyran-4-one

> <PUBCHEM_IUPAC_INCHI>
InChI=1S/C28H32O16/c1-9-18(32)21(35)23(37)27(41-9)40-8-16-19(33)22(36)24(38)28(43-16)44-26-20(34)17-13(31)6-11(29)7-15(17)42-25(26)10-3-4-12(30)14(5-10)39-2/h3-7,9,16,18-19,21-24,27-33,35-38H,8H2,1-2H
3/t9-,16+,18-,19+,21+,22-,23+,24+,27+,28-/m0/s1

> <PUBCHEM_IUPAC_INCHIKEY>
UIDGLYUNOUKLBM-GEBJFKNCSA-N

> <PUBCHEM_IUPAC_NAME>
5,7-dihydroxy-2-(4-hydroxy-3-methoxyphenyl)-3-[(2S,3R,4S,5S,6R)-3,4,5-trihydroxy-6-[[(2R,3R,4R,5R,6S)-3,4,5-trihydroxy-6-methyloxan-2-yl]oxymethyl]oxan-2-yl]oxychromen-4-one

> <PUBCHEM_IUPAC_NAME_MARKUP>
5,7-dihydroxy-2-(4-hydroxy-3-methoxyphenyl)-3-[(2<I>S</I>,3<I>R</I>,4<I>S</I>,5<I>S</I>,6<I>R</I>)-3,4,5-trihydroxy-6-[[(2<I>R</I>,3<I>R</I>,4<I>R</I>,5<I>R</I>,6<I>S</I>)-3,4,5-trihydroxy-6-methyloxa
n-2-yl]oxymethyl]oxan-2-yl]oxychromen-4-one

> <PUBCHEM_IUPAC_OPENEYE_NAME>
5,7-dihydroxy-2-(4-hydroxy-3-methoxy-phenyl)-3-[(2S,3R,4S,5S,6R)-3,4,5-trihydroxy-6-[[(2R,3R,4R,5R,6S)-3,4,5-trihydroxy-6-methyl-tetrahydropyran-2-yl]oxymethyl]tetrahydropyran-2-yl]oxy-chromen-4-one

> <PUBCHEM_IUPAC_SYSTEMATIC_NAME>
2-(3-methoxy-4-oxidanyl-phenyl)-3-[(2S,3R,4S,5S,6R)-6-[[(2R,3R,4R,5R,6S)-6-methyl-3,4,5-tris(oxidanyl)oxan-2-yl]oxymethyl]-3,4,5-tris(oxidanyl)oxan-2-yl]oxy-5,7-bis(oxidanyl)chromen-4-one

> <PUBCHEM_IUPAC_TRADITIONAL_NAME>
5,7-dihydroxy-2-(4-hydroxy-3-methoxy-phenyl)-3-[(2S,3R,4S,5S,6R)-3,4,5-trihydroxy-6-[[(2R,3R,4R,5R,6S)-3,4,5-trihydroxy-6-methyl-tetrahydropyran-2-yl]oxymethyl]tetrahydropyran-2-yl]oxy-chromone

> <PUBCHEM_MOLECULAR_FORMULA>
C28H32O16

> <PUBCHEM_MOLECULAR_WEIGHT>
624.5

> <PUBCHEM_MONOISOTOPIC_WEIGHT>
624.16903493

> <PUBCHEM_OPENEYE_CAN_SMILES>
CC1C(C(C(C(O1)OCC2C(C(C(C(O2)OC3=C(OC4=CC(=CC(=C4C3=O)O)O)C5=CC(=C(C=C5)O)OC)O)O)O)O)O)O

> <PUBCHEM_OPENEYE_ISO_SMILES>
C[C@H]1[C@@H]([C@H]([C@H]([C@@H](O1)OC[C@@H]2[C@H]([C@@H]([C@H]([C@@H](O2)OC3=C(OC4=CC(=CC(=C4C3=O)O)O)C5=CC(=C(C=C5)O)OC)O)O)O)O)O)O

> <PUBCHEM_TOTAL_CHARGE>
0

> <PUBCHEM_XLOGP3_AA>
-1

> <RelativeEnergy>
0

> <StereoisomerIndex>
1

> <TautomerIndex>
2

> <LibDock Warning>
no hit found

> <ErrorText>
LibDock failed

$$$$
5481663
  SciTegic09112317153D

 75 79  0  0  0  0            999 V2000
    0.6280   -0.6250    0.7380 O   0  0  0  1  0  0
    0.5570   -0.5900   -2.8220 O   0  0  0  1  0  0
   -0.0230   -2.5110   -3.9780 O   0  0  0  1  0  0
    3.2810   -0.7790   -1.7590 O   0  0  0  1  0  0
    4.7420   -1.0870    0.7390 O   0  0  0  1  0  0
    0.5590   -0.1760    3.0080 O   0  0  0  1  0  0
    3.3920    0.2290    2.9660 O   0  0  0  1  0  0
   -0.8770    0.7360   -5.2270 O   0  0  0  1  0  0
   -0.4980   -0.6000   -7.6040 O   0  0  0  1  0  0
   -1.4460   -3.2730   -7.1940 O   0  0  0  1  0  0
   -2.0380    2.3100    3.2870 O   0  0  0  1  0  0
   -1.6170   -1.7060    2.2410 O   0  0  0  1  0  0
   -4.2080   -1.8770    1.8020 O   0  0  0  1  0  0
   -6.6070    2.0400    2.4850 O   0  0  0  1  0  0
    3.3100    2.1850    5.8280 O   0  0  0  1  0  0
    3.6790    4.7450    4.8740 O   0  5  0  1  0  0
    1.2300   -0.4580   -0.5390 C   0  0  1  1  0  0
    2.6630   -1.0360   -0.5100 C   0  0  2  1  0  0
    3.5000   -0.4080    0.6260 C   0  0  1  1  0  0
    2.7250   -0.5100    1.9570 C   0  0  2  1  0  0
   -0.0110   -0.3880   -5.1830 C   0  0  1  1  0  0
   -0.2770   -1.1220   -3.8350 C   0  0  2  1  0  0
   -0.2030   -1.3220   -6.4150 C   0  0  1  1  0  0
   -1.2810   -2.3830   -6.1040 C   0  0  2  1  0  0
    1.2910    0.0390    1.8070 C   0  0  1  1  0  0
    0.3260   -1.1630   -1.5560 C   0  0  0  1  0  0
   -0.9290   -3.2090   -4.8310 C   0  0  2  1  0  0
   -2.1700   -3.5790   -4.0110 C   0  0  0  1  0  0
   -0.6480    0.3910    2.9750 C   0  0  0  1  0  0
   -0.8340    1.6920    3.3060 C   0  0  0  1  0  0
   -1.8020   -0.4270    2.5660 C   0  0  0  1  0  0
   -3.0210    0.1480    2.5370 C   0  0  0  1  0  0
    0.3570    2.4960    3.7200 C   0  0  0  1  0  0
   -3.1140    1.5840    2.9170 C   0  0  0  1  0  0
   -4.2520   -0.5890    2.1450 C   0  0  0  1  0  0
   -4.3160    2.1970    2.8930 C   0  0  0  1  0  0
    1.3040    1.9500    4.6070 C   0  0  0  1  0  0
    0.5350    3.8010    3.2250 C   0  0  0  1  0  0
   -5.4380    0.0520    2.1310 C   0  0  0  1  0  0
   -5.5400    1.4740    2.5020 C   0  0  0  1  0  0
    2.4260    2.7030    4.9990 C   0  0  0  1  0  0
    1.6530    4.5540    3.6150 C   0  0  0  1  0  0
    2.5980    4.0080    4.5010 C   0  0  0  1  0  0
    3.0360    0.9070    6.3830 C   0  0  0  1  0  0
    1.2510    0.6110   -0.7570 H   0  0  0  1  0  0
    2.6140   -2.1190   -0.3870 H   0  0  0  1  0  0
    3.7120    0.6370    0.3980 H   0  0  0  1  0  0
    2.6790   -1.5500    2.2900 H   0  0  0  1  0  0
    1.0060    0.0090   -5.2240 H   0  0  0  1  0  0
   -1.3100   -1.0120   -3.4950 H   0  0  0  1  0  0
    0.7400   -1.8370   -6.6050 H   0  0  0  1  0  0
   -2.2360   -1.8760   -5.9610 H   0  0  0  1  0  0
    1.2900    1.1120    1.5990 H   0  0  0  1  0  0
   -0.7240   -1.0140   -1.3030 H   0  0  0  1  0  0
    0.5640   -2.2230   -1.6120 H   0  0  0  1  0  0
   -0.4040   -4.1310   -5.0930 H   0  0  0  1  0  0
   -1.9090   -4.1220   -3.1030 H   0  0  0  1  0  0
   -2.8440   -4.2100   -4.5940 H   0  0  0  1  0  0
   -2.7210   -2.6850   -3.7200 H   0  0  0  1  0  0
   -4.3860    3.2390    3.1670 H   0  0  0  1  0  0
    1.1740    0.9480    4.9910 H   0  0  0  1  0  0
   -0.1880    4.2280    2.5440 H   0  0  0  1  0  0
   -6.3310   -0.4830    1.8460 H   0  0  0  1  0  0
    1.7860    5.5550    3.2310 H   0  0  0  1  0  0
    2.1080    0.9760    6.9530 H   0  0  0  1  0  0
    3.0520    0.1730    5.5780 H   0  0  0  1  0  0
    3.8370    0.6590    7.0780 H   0  0  0  1  0  0
    3.0160   -1.4920   -2.3610 H   0  0  0  1  0  0
    5.3020   -0.7880    0.0070 H   0  0  0  1  0  0
    4.1690   -0.2830    3.2360 H   0  0  0  1  0  0
   -0.5000    1.4120   -4.6420 H   0  0  0  1  0  0
   -0.3790   -1.2130   -8.3470 H   0  0  0  1  0  0
   -2.1820   -3.8650   -6.9730 H   0  0  0  1  0  0
   -3.7360   -2.5010    2.3700 H   0  0  0  1  0  0
   -1.9680   -2.0350    1.4040 H   0  0  0  1  0  0
  1 17  1  0
  1 25  1  0
  2 22  1  0
  2 26  1  0
  3 22  1  0
  3 27  1  0
  4 18  1  0
  4 68  1  0
  5 19  1  0
  5 69  1  0
  6 25  1  0
  6 29  1  0
  7 20  1  0
  7 70  1  0
  8 21  1  0
  8 71  1  0
  9 23  1  0
  9 72  1  0
 10 24  1  0
 10 73  1  0
 11 30  1  0
 11 34  1  0
 12 31  1  0
 12 75  1  0
 13 35  1  0
 13 74  1  0
 14 40  2  0
 15 41  1  0
 15 44  1  0
 16 43  1  0
 17 18  1  0
 17 26  1  0
 17 45  1  0
 18 19  1  0
 18 46  1  0
 19 20  1  0
 19 47  1  0
 20 25  1  0
 20 48  1  0
 21 22  1  0
 21 23  1  0
 21 49  1  0
 22 50  1  0
 23 24  1  0
 23 51  1  0
 24 27  1  0
 24 52  1  0
 25 53  1  0
 26 54  1  0
 26 55  1  0
 27 28  1  0
 27 56  1  0
 28 57  1  0
 28 58  1  0
 28 59  1  0
 29 30  2  0
 29 31  1  0
 30 33  1  0
 31 32  2  0
 32 34  1  0
 32 35  1  0
 33 37  2  0
 33 38  1  0
 34 36  2  0
 35 39  2  0
 36 40  1  0
 36 60  1  0
 37 41  1  0
 37 61  1  0
 38 42  2  0
 38 62  1  0
 39 40  1  0
 39 63  1  0
 41 43  2  0
 42 43  1  0
 42 64  1  0
 44 65  1  0
 44 66  1  0
 44 67  1  0
M  CHG  1  16  -1
M  END
> <Name>
5481663

> <AbsoluteEnergy>
62.8128

> <ConfNumber>
1

> <Ionization pH>
7.04_DPP

> <IonizationIndex>
2

> <NumberOfIonizations>
2

> <NumberOfStereoisomers>
1

> <NumberOfTautomers>
3

> <OBJECTID>
9223375683285352461

> <PUBCHEM_ATOM_DEF_STEREO_COUNT>
10

> <PUBCHEM_ATOM_UDEF_STEREO_COUNT>
0

> <PUBCHEM_BONDANNOTATIONS>
24  10  5
11  30  8
11  34  8
17  26  5
22  2  5
27  28  6
29  30  8
29  31  8
31  32  8
32  34  8
32  35  8
33  37  8
33  38  8
34  36  8
35  39  8
36  40  8
37  41  8
38  42  8
39  40  8
18  4  6
41  43  8
42  43  8
19  5  5
25  6  5
20  7  6
21  8  6
23  9  6

> <PUBCHEM_BOND_DEF_STEREO_COUNT>
0

> <PUBCHEM_BOND_UDEF_STEREO_COUNT>
0

> <PUBCHEM_CACTVS_COMPLEXITY>
1040

> <PUBCHEM_CACTVS_HBOND_ACCEPTOR>
16

> <PUBCHEM_CACTVS_HBOND_DONOR>
9

> <PUBCHEM_CACTVS_ROTATABLE_BOND>
7

> <PUBCHEM_CACTVS_SUBSKEYS>
AAADcfB4PgAAAAAAAAAAAAAAAAAAAAAAAAA0aIECAAAAAACBQAAAGgAACAAADBSwmAMyDoAABgCIAqBSAAICCAAkIAAIiAFGiMgdNzaGNR6ieWOl4BUPuQfI7LzOIAABCAAIQABAAAIQABCAAAAAAAAAAA==

> <PUBCHEM_CACTVS_TAUTO_COUNT>
69

> <PUBCHEM_CACTVS_TPSA>
255

> <PUBCHEM_COMPONENT_COUNT>
1

> <PUBCHEM_COMPOUND_CANONICALIZED>
1

> <PUBCHEM_COMPOUND_CID>
5481663

> <PUBCHEM_COORDINATE_TYPE>
1
5
255

> <PUBCHEM_EXACT_MASS>
624.16903493

> <PUBCHEM_HEAVY_ATOM_COUNT>
44

> <PUBCHEM_ISOTOPIC_ATOM_COUNT>
0

> <PUBCHEM_IUPAC_CAS_NAME>
5,7-dihydroxy-2-(4-hydroxy-3-methoxyphenyl)-3-[[(2S,3R,4S,5S,6R)-3,4,5-trihydroxy-6-[[(2R,3R,4R,5R,6S)-3,4,5-trihydroxy-6-methyl-2-oxanyl]oxymethyl]-2-oxanyl]oxy]-1-benzopyran-4-one

> <PUBCHEM_IUPAC_INCHI>
InChI=1S/C28H32O16/c1-9-18(32)21(35)23(37)27(41-9)40-8-16-19(33)22(36)24(38)28(43-16)44-26-20(34)17-13(31)6-11(29)7-15(17)42-25(26)10-3-4-12(30)14(5-10)39-2/h3-7,9,16,18-19,21-24,27-33,35-38H,8H2,1-2H
3/t9-,16+,18-,19+,21+,22-,23+,24+,27+,28-/m0/s1

> <PUBCHEM_IUPAC_INCHIKEY>
UIDGLYUNOUKLBM-GEBJFKNCSA-N

> <PUBCHEM_IUPAC_NAME>
5,7-dihydroxy-2-(4-hydroxy-3-methoxyphenyl)-3-[(2S,3R,4S,5S,6R)-3,4,5-trihydroxy-6-[[(2R,3R,4R,5R,6S)-3,4,5-trihydroxy-6-methyloxan-2-yl]oxymethyl]oxan-2-yl]oxychromen-4-one

> <PUBCHEM_IUPAC_NAME_MARKUP>
5,7-dihydroxy-2-(4-hydroxy-3-methoxyphenyl)-3-[(2<I>S</I>,3<I>R</I>,4<I>S</I>,5<I>S</I>,6<I>R</I>)-3,4,5-trihydroxy-6-[[(2<I>R</I>,3<I>R</I>,4<I>R</I>,5<I>R</I>,6<I>S</I>)-3,4,5-trihydroxy-6-methyloxa
n-2-yl]oxymethyl]oxan-2-yl]oxychromen-4-one

> <PUBCHEM_IUPAC_OPENEYE_NAME>
5,7-dihydroxy-2-(4-hydroxy-3-methoxy-phenyl)-3-[(2S,3R,4S,5S,6R)-3,4,5-trihydroxy-6-[[(2R,3R,4R,5R,6S)-3,4,5-trihydroxy-6-methyl-tetrahydropyran-2-yl]oxymethyl]tetrahydropyran-2-yl]oxy-chromen-4-one

> <PUBCHEM_IUPAC_SYSTEMATIC_NAME>
2-(3-methoxy-4-oxidanyl-phenyl)-3-[(2S,3R,4S,5S,6R)-6-[[(2R,3R,4R,5R,6S)-6-methyl-3,4,5-tris(oxidanyl)oxan-2-yl]oxymethyl]-3,4,5-tris(oxidanyl)oxan-2-yl]oxy-5,7-bis(oxidanyl)chromen-4-one

> <PUBCHEM_IUPAC_TRADITIONAL_NAME>
5,7-dihydroxy-2-(4-hydroxy-3-methoxy-phenyl)-3-[(2S,3R,4S,5S,6R)-3,4,5-trihydroxy-6-[[(2R,3R,4R,5R,6S)-3,4,5-trihydroxy-6-methyl-tetrahydropyran-2-yl]oxymethyl]tetrahydropyran-2-yl]oxy-chromone

> <PUBCHEM_MOLECULAR_FORMULA>
C28H32O16

> <PUBCHEM_MOLECULAR_WEIGHT>
624.5

> <PUBCHEM_MONOISOTOPIC_WEIGHT>
624.16903493

> <PUBCHEM_OPENEYE_CAN_SMILES>
CC1C(C(C(C(O1)OCC2C(C(C(C(O2)OC3=C(OC4=CC(=CC(=C4C3=O)O)O)C5=CC(=C(C=C5)O)OC)O)O)O)O)O)O

> <PUBCHEM_OPENEYE_ISO_SMILES>
C[C@H]1[C@@H]([C@H]([C@H]([C@@H](O1)OC[C@@H]2[C@H]([C@@H]([C@H]([C@@H](O2)OC3=C(OC4=CC(=CC(=C4C3=O)O)O)C5=CC(=C(C=C5)O)OC)O)O)O)O)O)O

> <PUBCHEM_TOTAL_CHARGE>
0

> <PUBCHEM_XLOGP3_AA>
-1

> <RelativeEnergy>
0

> <StereoisomerIndex>
1

> <TautomerIndex>
3

> <LibDock Warning>
no hit found

> <ErrorText>
LibDock failed

$$$$
6419835
  SciTegic09112317153D

 50 53  0  0  0  0            999 V2000
    2.0670    1.8030   -0.0630 O   0  0  0  1  0  0
   -0.3290   -0.8510   -0.9350 O   0  0  0  1  0  0
    4.6440   -2.2190   -0.6850 O   0  0  0  1  0  0
    6.8200    1.9190    0.2220 O   0  0  0  1  0  0
   -2.0270    4.8550    1.1530 O   0  0  0  1  0  0
    0.1590   -1.1340    1.2340 O   0  0  0  1  0  0
   -3.3420    4.6720   -1.2380 O   0  0  0  1  0  0
   -4.6420   -3.2180   -1.5900 O   0  0  0  1  0  0
   -3.7070   -3.8750    2.9960 O   0  0  0  1  0  0
   -5.3320   -4.2620    0.8350 O   0  0  0  1  0  0
    0.8790   -0.1030   -1.0000 C   0  0  1  1  0  0
    0.8210    1.0930   -0.0330 C   0  0  2  1  0  0
    2.0570   -1.0180   -0.6330 C   0  0  0  1  0  0
    3.3080   -0.2530   -0.3970 C   0  0  0  1  0  0
    3.2460    1.1440   -0.1240 C   0  0  0  1  0  0
   -0.2810    2.0420   -0.3530 C   0  0  0  1  0  0
    4.5690   -0.9040   -0.4410 C   0  0  0  1  0  0
    4.4400    1.8750    0.0800 C   0  0  0  1  0  0
   -0.6470    3.0320    0.5750 C   0  0  0  1  0  0
   -0.9570    1.9480   -1.5810 C   0  0  0  1  0  0
    5.7570   -0.1650   -0.2320 C   0  0  0  1  0  0
    5.6920    1.2230    0.0270 C   0  0  0  1  0  0
   -0.5700   -1.3150    0.2880 C   0  0  0  1  0  0
   -1.6890    3.9300    0.2790 C   0  0  0  1  0  0
   -1.9970    2.8450   -1.8800 C   0  0  0  1  0  0
   -2.3660    3.8360   -0.9510 C   0  0  0  1  0  0
   -1.8340   -2.0970    0.4330 C   0  0  0  1  0  0
   -2.1890   -2.6350    1.6830 C   0  0  0  1  0  0
   -2.6720   -2.2970   -0.6790 C   0  0  0  1  0  0
   -3.8620   -3.0340   -0.5430 C   0  0  0  1  0  0
   -3.3790   -3.3720    1.8230 C   0  0  0  1  0  0
   -4.2160   -3.5720    0.7090 C   0  0  0  1  0  0
    0.9970    0.2490   -2.0280 H   0  0  0  1  0  0
    0.6720    0.7290    0.9840 H   0  0  0  1  0  0
    1.8230   -1.5720    0.2770 H   0  0  0  1  0  0
    2.2060   -1.7560   -1.4220 H   0  0  0  1  0  0
    4.3940    2.9360    0.2810 H   0  0  0  1  0  0
   -0.1310    3.1060    1.5210 H   0  0  0  1  0  0
   -0.6810    1.1890   -2.2980 H   0  0  0  1  0  0
    6.7140   -0.6630   -0.2700 H   0  0  0  1  0  0
   -2.5160    2.7700   -2.8240 H   0  0  0  1  0  0
   -1.5510   -2.4870    2.5420 H   0  0  0  1  0  0
   -2.4050   -1.8870   -1.6410 H   0  0  0  1  0  0
    5.5090   -2.6480   -0.7120 H   0  0  0  1  0  0
    7.6710    1.4640    0.1830 H   0  0  0  1  0  0
   -2.7430    5.4670    0.9410 H   0  0  0  1  0  0
   -3.7980    4.5960   -2.0880 H   0  0  0  1  0  0
   -5.4570   -3.7260   -1.4890 H   0  0  0  1  0  0
   -3.1240   -3.7310    3.7520 H   0  0  0  1  0  0
   -5.5650   -4.6280    1.7000 H   0  0  0  1  0  0
  1 12  1  0
  1 15  1  0
  2 11  1  0
  2 23  1  0
  3 17  1  0
  3 44  1  0
  4 22  1  0
  4 45  1  0
  5 24  1  0
  5 46  1  0
  6 23  2  0
  7 26  1  0
  7 47  1  0
  8 30  1  0
  8 48  1  0
  9 31  1  0
  9 49  1  0
 10 32  1  0
 10 50  1  0
 11 12  1  0
 11 13  1  0
 11 33  1  0
 12 16  1  0
 12 34  1  0
 13 14  1  0
 13 35  1  0
 13 36  1  0
 14 15  2  0
 14 17  1  0
 15 18  1  0
 16 19  2  0
 16 20  1  0
 17 21  2  0
 18 22  2  0
 18 37  1  0
 19 24  1  0
 19 38  1  0
 20 25  2  0
 20 39  1  0
 21 22  1  0
 21 40  1  0
 23 27  1  0
 24 26  2  0
 25 26  1  0
 25 41  1  0
 27 28  2  0
 27 29  1  0
 28 31  1  0
 28 42  1  0
 29 30  2  0
 29 43  1  0
 30 32  1  0
 31 32  2  0
M  END
> <Name>
6419835

> <AbsoluteEnergy>
46.1601

> <ConfNumber>
1

> <Ionization pH>
7.5

> <IonizationIndex>
1

> <NumberOfIonizations>
1

> <NumberOfStereoisomers>
1

> <NumberOfTautomers>
2

> <OBJECTID>
9223375687580319757

> <PUBCHEM_ATOM_DEF_STEREO_COUNT>
2

> <PUBCHEM_ATOM_UDEF_STEREO_COUNT>
0

> <PUBCHEM_BONDANNOTATIONS>
12  16  6
14  15  8
14  17  8
15  18  8
16  19  8
16  20  8
17  21  8
18  22  8
19  24  8
11  2  5
20  25  8
21  22  8
24  26  8
25  26  8
27  28  8
27  29  8
28  31  8
29  30  8
30  32  8
31  32  8

> <PUBCHEM_BOND_DEF_STEREO_COUNT>
0

> <PUBCHEM_BOND_UDEF_STEREO_COUNT>
0

> <PUBCHEM_CACTVS_COMPLEXITY>
649

> <PUBCHEM_CACTVS_HBOND_ACCEPTOR>
10

> <PUBCHEM_CACTVS_HBOND_DONOR>
7

> <PUBCHEM_CACTVS_ROTATABLE_BOND>
4

> <PUBCHEM_CACTVS_SUBSKEYS>
AAADceB4PAAAAAAAAAAAAAAAAAAAAAAAAAA0YMEAAAAAAACRUAAAGgAACAAADBSgmAIwDoAABgCIAiDSCAACCAAkIAAIiAEGiMgNJzKGNRqCeSGlwBULuYfK7PzOIAABCAAIQABAAAIQABCAAAAAAAAAAA==

> <PUBCHEM_CACTVS_TAUTO_COUNT>
998

> <PUBCHEM_CACTVS_TPSA>
177

> <PUBCHEM_COMPONENT_COUNT>
1

> <PUBCHEM_COMPOUND_CANONICALIZED>
1

> <PUBCHEM_COMPOUND_CID>
6419835

> <PUBCHEM_COORDINATE_TYPE>
1
5
255

> <PUBCHEM_EXACT_MASS>
442.08999677

> <PUBCHEM_HEAVY_ATOM_COUNT>
32

> <PUBCHEM_ISOTOPIC_ATOM_COUNT>
0

> <PUBCHEM_IUPAC_CAS_NAME>
3,4,5-trihydroxybenzoic acid [(2S,3R)-2-(3,4-dihydroxyphenyl)-5,7-dihydroxy-3,4-dihydro-2H-1-benzopyran-3-yl] ester

> <PUBCHEM_IUPAC_INCHI>
InChI=1S/C22H18O10/c23-11-6-14(25)12-8-19(32-22(30)10-4-16(27)20(29)17(28)5-10)21(31-18(12)7-11)9-1-2-13(24)15(26)3-9/h1-7,19,21,23-29H,8H2/t19-,21+/m1/s1

> <PUBCHEM_IUPAC_INCHIKEY>
LSHVYAFMTMFKBA-CTNGQTDRSA-N

> <PUBCHEM_IUPAC_NAME>
[(2S,3R)-2-(3,4-dihydroxyphenyl)-5,7-dihydroxy-3,4-dihydro-2H-chromen-3-yl] 3,4,5-trihydroxybenzoate

> <PUBCHEM_IUPAC_NAME_MARKUP>
[(2<I>S</I>,3<I>R</I>)-2-(3,4-dihydroxyphenyl)-5,7-dihydroxy-3,4-dihydro-2<I>H</I>-chromen-3-yl] 3,4,5-trihydroxybenzoate

> <PUBCHEM_IUPAC_OPENEYE_NAME>
[(2S,3R)-2-(3,4-dihydroxyphenyl)-5,7-dihydroxy-chroman-3-yl] 3,4,5-trihydroxybenzoate

> <PUBCHEM_IUPAC_SYSTEMATIC_NAME>
[(2S,3R)-2-[3,4-bis(oxidanyl)phenyl]-5,7-bis(oxidanyl)-3,4-dihydro-2H-chromen-3-yl] 3,4,5-tris(oxidanyl)benzoate

> <PUBCHEM_IUPAC_TRADITIONAL_NAME>
3,4,5-trihydroxybenzoic acid [(2S,3R)-2-(3,4-dihydroxyphenyl)-5,7-dihydroxy-chroman-3-yl] ester

> <PUBCHEM_MOLECULAR_FORMULA>
C22H18O10

> <PUBCHEM_MOLECULAR_WEIGHT>
442.4

> <PUBCHEM_MONOISOTOPIC_WEIGHT>
442.08999677

> <PUBCHEM_OPENEYE_CAN_SMILES>
C1C(C(OC2=CC(=CC(=C21)O)O)C3=CC(=C(C=C3)O)O)OC(=O)C4=CC(=C(C(=C4)O)O)O

> <PUBCHEM_OPENEYE_ISO_SMILES>
C1[C@H]([C@@H](OC2=CC(=CC(=C21)O)O)C3=CC(=C(C=C3)O)O)OC(=O)C4=CC(=C(C(=C4)O)O)O

> <PUBCHEM_TOTAL_CHARGE>
0

> <PUBCHEM_XLOGP3>
1.5

> <RelativeEnergy>
0

> <StereoisomerIndex>
1

> <TautomerIndex>
1

> <LibDock Warning>
no hit found

> <ErrorText>
LibDock failed

$$$$
11250133
  SciTegic09112317153D

 67 72  0  0  0  0            999 V2000
   -1.4700   -2.9810   -1.3070 O   0  0  0  1  0  0
    1.1160    1.2190    1.2490 O   0  0  0  1  0  0
   -0.3770   -2.6930    1.3750 O   0  0  0  1  0  0
    3.9760    1.6900    0.9590 O   0  0  0  1  0  0
   -1.1710   -0.4250   -2.6100 O   0  0  0  1  0  0
    1.9090    3.1700   -3.0890 O   0  0  0  1  0  0
   -2.8620    1.2720    0.5550 O   0  5  0  1  0  0
   -5.9560   -1.4830   -1.8270 O   0  0  0  1  0  0
    4.0750   -5.2700   -0.8730 O   0  0  0  1  0  0
    2.7060   -7.6260   -1.1010 O   0  0  0  1  0  0
   -2.6240    4.1550    2.1750 O   0  0  0  1  0  0
   -1.6480    6.4070    3.3820 O   0  0  0  1  0  0
   -0.7210   -0.6150    0.1810 C   0  0  1  1  0  0
    0.0880   -1.9340    0.2660 C   0  0  2  1  0  0
   -0.0310    0.3790   -0.6660 C   0  0  0  1  0  0
   -0.0820   -2.7420   -1.0440 C   0  0  1  1  0  0
   -2.0970   -0.8350   -0.3520 C   0  0  0  1  0  0
    0.8930    1.2860   -0.0850 C   0  0  0  1  0  0
    1.5680    2.2350   -0.9100 C   0  0  0  1  0  0
    3.0300    2.7370    1.0860 C   0  0  2  1  0  0
    1.8480    2.2400    1.9450 C   0  0  1  1  0  0
    2.5550    3.1730   -0.3170 C   0  0  0  1  0  0
   -2.4000   -2.0260   -1.0800 C   0  0  0  1  0  0
   -0.2950    0.4280   -2.0570 C   0  0  0  1  0  0
    0.6590   -4.0370   -1.0590 C   0  0  0  1  0  0
    1.2920    2.2760   -2.3010 C   0  0  0  1  0  0
   -3.1220    0.1280   -0.1370 C   0  0  0  1  0  0
    0.3630    1.3760   -2.8690 C   0  0  0  1  0  0
    0.9200    3.3450    2.3250 C   0  0  0  1  0  0
   -3.7080   -2.2380   -1.5740 C   0  0  0  1  0  0
   -4.4260   -0.0940   -0.6390 C   0  0  0  1  0  0
    2.0600   -4.0480   -0.9560 C   0  0  0  1  0  0
   -4.7200   -1.2750   -1.3550 C   0  0  0  1  0  0
   -0.0450   -5.2490   -1.1780 C   0  0  0  1  0  0
   -0.4560    3.2300    2.0660 C   0  0  0  1  0  0
    1.4190    4.5020    2.9470 C   0  0  0  1  0  0
    2.7610   -5.2660   -0.9700 C   0  0  0  1  0  0
    0.6550   -6.4670   -1.1900 C   0  0  0  1  0  0
    2.0560   -6.4800   -1.0880 C   0  0  0  1  0  0
   -1.3360    4.2680    2.4230 C   0  0  0  1  0  0
    0.5450    5.5410    3.3040 C   0  0  0  1  0  0
   -0.8330    5.4270    3.0450 C   0  0  0  1  0  0
   -0.7890   -0.1770    1.1790 H   0  0  0  1  0  0
    1.1430   -1.7300    0.4620 H   0  0  0  1  0  0
    0.3060   -2.1500   -1.8740 H   0  0  0  1  0  0
    3.5520    3.5600    1.5780 H   0  0  0  1  0  0
    2.2090    1.8040    2.8760 H   0  0  0  1  0  0
    3.4100    3.3030   -0.9830 H   0  0  0  1  0  0
    2.0790    4.1510   -0.2440 H   0  0  0  1  0  0
    0.1580    1.4120   -3.9300 H   0  0  0  1  0  0
   -3.9370   -3.1410   -2.1220 H   0  0  0  1  0  0
   -5.1980    0.6430   -0.4760 H   0  0  0  1  0  0
    2.6020   -3.1190   -0.8660 H   0  0  0  1  0  0
   -1.1220   -5.2470   -1.2560 H   0  0  0  1  0  0
   -0.8460    2.3410    1.5890 H   0  0  0  1  0  0
    2.4770    4.5970    3.1500 H   0  0  0  1  0  0
    0.1110   -7.3960   -1.2820 H   0  0  0  1  0  0
    0.9320    6.4310    3.7810 H   0  0  0  1  0  0
   -0.2330   -2.1550    2.1700 H   0  0  0  1  0  0
    4.2670    1.4550    1.8540 H   0  0  0  1  0  0
   -0.8810   -1.3210   -2.8250 H   0  0  0  1  0  0
    1.7100    3.1860   -4.0330 H   0  0  0  1  0  0
   -6.6400   -0.8180   -1.6720 H   0  0  0  1  0  0
    4.5490   -6.1100   -0.8840 H   0  0  0  1  0  0
    2.2080   -8.4500   -1.1820 H   0  0  0  1  0  0
   -3.2200    4.8730    2.4260 H   0  0  0  1  0  0
   -1.2890    7.1950    3.8090 H   0  0  0  1  0  0
  1 16  1  0
  1 23  1  0
  2 18  1  0
  2 21  1  0
  3 14  1  0
  3 59  1  0
  4 20  1  0
  4 60  1  0
  5 24  1  0
  5 61  1  0
  6 26  1  0
  6 62  1  0
  7 27  1  0
  8 33  1  0
  8 63  1  0
  9 37  1  0
  9 64  1  0
 10 39  1  0
 10 65  1  0
 11 40  1  0
 11 66  1  0
 12 42  1  0
 12 67  1  0
 13 14  1  0
 13 15  1  0
 13 17  1  0
 13 43  1  0
 14 16  1  0
 14 44  1  0
 15 18  2  0
 15 24  1  0
 16 25  1  0
 16 45  1  0
 17 23  2  0
 17 27  1  0
 18 19  1  0
 19 22  1  0
 19 26  2  0
 20 21  1  0
 20 22  1  0
 20 46  1  0
 21 29  1  0
 21 47  1  0
 22 48  1  0
 22 49  1  0
 23 30  1  0
 24 28  2  0
 25 32  2  0
 25 34  1  0
 26 28  1  0
 27 31  2  0
 28 50  1  0
 29 35  2  0
 29 36  1  0
 30 33  2  0
 30 51  1  0
 31 33  1  0
 31 52  1  0
 32 37  1  0
 32 53  1  0
 34 38  2  0
 34 54  1  0
 35 40  1  0
 35 55  1  0
 36 41  2  0
 36 56  1  0
 37 39  2  0
 38 39  1  0
 38 57  1  0
 40 42  2  0
 41 42  1  0
 41 58  1  0
M  CHG  1   7  -1
M  END
> <Name>
11250133

> <AbsoluteEnergy>
74.5526

> <ConfNumber>
1

> <Ionization pH>
6.79_DPPPPPPP

> <IonizationIndex>
1

> <NumberOfIonizations>
2

> <NumberOfStereoisomers>
1

> <NumberOfTautomers>
1

> <OBJECTID>
9223375709055156237

> <PUBCHEM_ATOM_DEF_STEREO_COUNT>
5

> <PUBCHEM_ATOM_UDEF_STEREO_COUNT>
0

> <PUBCHEM_BONDANNOTATIONS>
13  43  6
15  18  8
15  24  8
16  25  6
17  23  8
17  27  8
18  19  8
19  26  8
21  29  5
23  30  8
24  28  8
25  32  8
25  34  8
26  28  8
27  31  8
29  35  8
29  36  8
14  3  6
30  33  8
31  33  8
32  37  8
34  38  8
35  40  8
36  41  8
37  39  8
38  39  8
20  4  6
40  42  8
41  42  8

> <PUBCHEM_BOND_DEF_STEREO_COUNT>
0

> <PUBCHEM_BOND_UDEF_STEREO_COUNT>
0

> <PUBCHEM_CACTVS_COMPLEXITY>
925

> <PUBCHEM_CACTVS_HBOND_ACCEPTOR>
12

> <PUBCHEM_CACTVS_HBOND_DONOR>
10

> <PUBCHEM_CACTVS_ROTATABLE_BOND>
3

> <PUBCHEM_CACTVS_SUBSKEYS>
AAADceB4PAAAAAAAAAAAAAAAAAAAAAAAAAA0aMGCAAAAAACRVAAAGgAACAAADRSgmAIwBoAABgCAAiBCAAACCAAgIAAIiAAGiIgNNyKGMRqCeCGlwBULuAfA4PwOoAADCAAIQABAAAYQABCAAAAAAAAAAA==

> <PUBCHEM_CACTVS_TAUTO_COUNT>
986

> <PUBCHEM_CACTVS_TPSA>
221

> <PUBCHEM_COMPONENT_COUNT>
1

> <PUBCHEM_COMPOUND_CANONICALIZED>
1

> <PUBCHEM_COMPOUND_CID>
11250133

> <PUBCHEM_COORDINATE_TYPE>
1
5
255

> <PUBCHEM_EXACT_MASS>
578.14242626

> <PUBCHEM_HEAVY_ATOM_COUNT>
42

> <PUBCHEM_ISOTOPIC_ATOM_COUNT>
0

> <PUBCHEM_IUPAC_CAS_NAME>
(2R,3S)-2-(3,4-dihydroxyphenyl)-8-[(2R,3R,4R)-2-(3,4-dihydroxyphenyl)-3,5,7-trihydroxy-3,4-dihydro-2H-1-benzopyran-4-yl]-3,4-dihydro-2H-1-benzopyran-3,5,7-triol

> <PUBCHEM_IUPAC_INCHI>
InChI=1S/C30H26O12/c31-13-7-20(37)24-23(8-13)41-29(12-2-4-16(33)19(36)6-12)27(40)26(24)25-21(38)10-17(34)14-9-22(39)28(42-30(14)25)11-1-3-15(32)18(35)5-11/h1-8,10,22,26-29,31-40H,9H2/t22-,26+,27+,28+,
29+/m0/s1

> <PUBCHEM_IUPAC_INCHIKEY>
XFZJEEAOWLFHDH-UKWJTHFESA-N

> <PUBCHEM_IUPAC_NAME>
(2R,3S)-2-(3,4-dihydroxyphenyl)-8-[(2R,3R,4R)-2-(3,4-dihydroxyphenyl)-3,5,7-trihydroxy-3,4-dihydro-2H-chromen-4-yl]-3,4-dihydro-2H-chromene-3,5,7-triol

> <PUBCHEM_IUPAC_NAME_MARKUP>
(2<I>R</I>,3<I>S</I>)-2-(3,4-dihydroxyphenyl)-8-[(2<I>R</I>,3<I>R</I>,4<I>R</I>)-2-(3,4-dihydroxyphenyl)-3,5,7-trihydroxy-3,4-dihydro-2<I>H</I>-chromen-4-yl]-3,4-dihydro-2<I>H</I>-chromene-3,5,7-triol

> <PUBCHEM_IUPAC_OPENEYE_NAME>
(2R,3S)-2-(3,4-dihydroxyphenyl)-8-[(2R,3R,4R)-2-(3,4-dihydroxyphenyl)-3,5,7-trihydroxy-chroman-4-yl]chromane-3,5,7-triol

> <PUBCHEM_IUPAC_SYSTEMATIC_NAME>
(2R,3S)-2-[3,4-bis(oxidanyl)phenyl]-8-[(2R,3R,4R)-2-[3,4-bis(oxidanyl)phenyl]-3,5,7-tris(oxidanyl)-3,4-dihydro-2H-chromen-4-yl]-3,4-dihydro-2H-chromene-3,5,7-triol

> <PUBCHEM_IUPAC_TRADITIONAL_NAME>
(2R,3S)-2-(3,4-dihydroxyphenyl)-8-[(2R,3R,4R)-2-(3,4-dihydroxyphenyl)-3,5,7-trihydroxy-chroman-4-yl]chroman-3,5,7-triol

> <PUBCHEM_MOLECULAR_FORMULA>
C30H26O12

> <PUBCHEM_MOLECULAR_WEIGHT>
578.5

> <PUBCHEM_MONOISOTOPIC_WEIGHT>
578.14242626

> <PUBCHEM_OPENEYE_CAN_SMILES>
C1C(C(OC2=C1C(=CC(=C2C3C(C(OC4=CC(=CC(=C34)O)O)C5=CC(=C(C=C5)O)O)O)O)O)C6=CC(=C(C=C6)O)O)O

> <PUBCHEM_OPENEYE_ISO_SMILES>
C1[C@@H]([C@H](OC2=C1C(=CC(=C2[C@@H]3[C@H]([C@H](OC4=CC(=CC(=C34)O)O)C5=CC(=C(C=C5)O)O)O)O)O)C6=CC(=C(C=C6)O)O)O

> <PUBCHEM_TOTAL_CHARGE>
0

> <PUBCHEM_XLOGP3_AA>
2.4

> <RelativeEnergy>
0

> <StereoisomerIndex>
1

> <TautomerIndex>
1

> <LibDock Warning>
no hit found

> <ErrorText>
LibDock failed

$$$$
15593124
  SciTegic09112317153D

 82 88  0  0  0  0            999 V2000
    0.1170    0.4330    0.0980 O   0  0  0  1  0  0
   -0.9350   -4.6080   -2.1480 O   0  0  0  1  0  0
    1.6790   -2.0850   -1.6760 O   0  0  0  1  0  0
    1.1700    3.8150    1.1040 O   0  0  0  1  0  0
   -1.8180   -1.3160   -3.9020 O   0  0  0  1  0  0
   -1.1270    3.3730   -3.5120 O   0  0  0  1  0  0
   -3.3250   -0.6800   -0.5580 O   0  5  0  1  0  0
   -5.6690   -4.6350   -1.8170 O   0  0  0  1  0  0
   -0.9760   -4.0780    2.9380 O   0  0  0  1  0  0
   -4.4370    2.2630    1.1470 O   0  0  0  1  0  0
    1.2790   -5.4580    3.6380 O   0  0  0  1  0  0
    2.1070    3.3680    3.0900 O   0  0  0  1  0  0
   -4.3310    2.7490    3.8370 O   0  0  0  1  0  0
    7.0340    2.9690    1.9560 O   0  0  0  1  0  0
    5.0260    4.9580   -1.8300 O   0  0  0  1  0  0
    7.2570    4.0740   -0.5290 O   0  0  0  1  0  0
   -0.7360   -1.8330   -1.3320 C   0  0  1  1  0  0
    0.4110   -2.6070   -2.0420 C   0  0  2  1  0  0
   -0.8390   -0.4630   -1.8940 C   0  0  0  1  0  0
    0.3490   -4.1200   -1.7500 C   0  0  1  1  0  0
   -2.0460   -2.5660   -1.4120 C   0  0  0  1  0  0
   -0.3910    0.6500   -1.1370 C   0  0  0  1  0  0
    0.9490    2.7130    0.2330 C   0  0  1  1  0  0
   -0.4750    1.9630   -1.6900 C   0  0  0  1  0  0
    0.3720    1.5140    1.0090 C   0  0  1  1  0  0
    0.0130    3.1310   -0.9130 C   0  0  0  1  0  0
   -2.0650   -3.9270   -1.8550 C   0  0  0  1  0  0
   -1.3860   -0.2690   -3.1850 C   0  0  0  1  0  0
    0.5960   -4.4740   -0.3200 C   0  0  0  1  0  0
   -1.0300    2.1450   -2.9840 C   0  0  0  1  0  0
   -3.2840   -1.9510   -1.0490 C   0  0  0  1  0  0
   -0.8760    1.8400    1.7580 C   0  0  0  1  0  0
   -1.4830    1.0320   -3.7260 C   0  0  0  1  0  0
   -3.2940   -4.6120   -1.9980 C   0  0  0  1  0  0
   -4.5050   -2.6500   -1.1940 C   0  0  0  1  0  0
   -4.5100   -3.9770   -1.6750 C   0  0  0  1  0  0
   -0.3310   -4.1000    0.6680 C   0  0  0  1  0  0
    1.7540   -5.1830    0.0410 C   0  0  0  1  0  0
   -2.1080    1.9000    1.0850 C   0  0  0  1  0  0
   -0.8210    2.0900    3.1410 C   0  0  0  1  0  0
   -0.1030   -4.4320    2.0170 C   0  0  0  1  0  0
    1.9840   -5.5170    1.3870 C   0  0  0  1  0  0
    2.2090    3.6220    1.9120 C   0  0  0  1  0  0
   -3.2850    2.2090    1.7860 C   0  0  0  1  0  0
    1.0570   -5.1430    2.3750 C   0  0  0  1  0  0
   -1.9990    2.3990    3.8440 C   0  0  0  1  0  0
   -3.2320    2.4590    3.1700 C   0  0  0  1  0  0
    3.5480    3.7420    1.2640 C   0  0  0  1  0  0
    3.6640    4.3120   -0.0180 C   0  0  0  1  0  0
    4.6970    3.2860    1.9320 C   0  0  0  1  0  0
    5.9600    3.3970    1.3240 C   0  0  0  1  0  0
    4.9240    4.4250   -0.6300 C   0  0  0  1  0  0
    6.0740    3.9690    0.0430 C   0  0  0  1  0  0
   -0.5020   -1.7360   -0.2710 H   0  0  0  1  0  0
    0.3280   -2.4840   -3.1250 H   0  0  0  1  0  0
    1.0910   -4.6460   -2.3510 H   0  0  0  1  0  0
    1.9190    2.4290   -0.1800 H   0  0  0  1  0  0
    1.1030    1.1620    1.7360 H   0  0  0  1  0  0
    0.5380    3.8300   -1.5690 H   0  0  0  1  0  0
   -0.8510    3.6630   -0.5160 H   0  0  0  1  0  0
   -1.9060    1.1750   -4.7100 H   0  0  0  1  0  0
   -3.3030   -5.6310   -2.3560 H   0  0  0  1  0  0
   -5.4370   -2.1720   -0.9340 H   0  0  0  1  0  0
   -1.2230   -3.5530    0.3960 H   0  0  0  1  0  0
    2.4700   -5.4750   -0.7140 H   0  0  0  1  0  0
   -2.1520    1.7110    0.0210 H   0  0  0  1  0  0
    0.1210    2.0460    3.6650 H   0  0  0  1  0  0
    2.8750   -6.0620    1.6600 H   0  0  0  1  0  0
   -1.9540    2.5890    4.9080 H   0  0  0  1  0  0
    2.7850    4.6630   -0.5390 H   0  0  0  1  0  0
    4.6180    2.8470    2.9170 H   0  0  0  1  0  0
    1.7570   -1.2090   -2.0870 H   0  0  0  1  0  0
   -2.1900   -1.1670   -4.7820 H   0  0  0  1  0  0
   -0.8920    4.1420   -2.9790 H   0  0  0  1  0  0
   -5.6600   -5.5440   -2.1420 H   0  0  0  1  0  0
   -1.7680   -3.5890    2.6760 H   0  0  0  1  0  0
   -5.1880    2.7080    1.5630 H   0  0  0  1  0  0
    2.0800   -5.9460    3.8670 H   0  0  0  1  0  0
   -5.1890    2.5510    3.4420 H   0  0  0  1  0  0
    7.8970    3.0490    1.5320 H   0  0  0  1  0  0
    5.8270    4.8080   -2.3480 H   0  0  0  1  0  0
    7.3710    4.6820   -1.2720 H   0  0  0  1  0  0
  1 22  1  0
  1 25  1  0
  2 20  1  0
  2 27  1  0
  3 18  1  0
  3 72  1  0
  4 23  1  0
  4 43  1  0
  5 28  1  0
  5 73  1  0
  6 30  1  0
  6 74  1  0
  7 31  1  0
  8 36  1  0
  8 75  1  0
  9 41  1  0
  9 76  1  0
 10 44  1  0
 10 77  1  0
 11 45  1  0
 11 78  1  0
 12 43  2  0
 13 47  1  0
 13 79  1  0
 14 51  1  0
 14 80  1  0
 15 52  1  0
 15 81  1  0
 16 53  1  0
 16 82  1  0
 17 18  1  0
 17 19  1  0
 17 21  1  0
 17 54  1  0
 18 20  1  0
 18 55  1  0
 19 22  2  0
 19 28  1  0
 20 29  1  0
 20 56  1  0
 21 27  2  0
 21 31  1  0
 22 24  1  0
 23 25  1  0
 23 26  1  0
 23 57  1  0
 24 26  1  0
 24 30  2  0
 25 32  1  0
 25 58  1  0
 26 59  1  0
 26 60  1  0
 27 34  1  0
 28 33  2  0
 29 37  2  0
 29 38  1  0
 30 33  1  0
 31 35  2  0
 32 39  2  0
 32 40  1  0
 33 61  1  0
 34 36  2  0
 34 62  1  0
 35 36  1  0
 35 63  1  0
 37 41  1  0
 37 64  1  0
 38 42  2  0
 38 65  1  0
 39 44  1  0
 39 66  1  0
 40 46  2  0
 40 67  1  0
 41 45  2  0
 42 45  1  0
 42 68  1  0
 43 48  1  0
 44 47  2  0
 46 47  1  0
 46 69  1  0
 48 49  2  0
 48 50  1  0
 49 52  1  0
 49 70  1  0
 50 51  2  0
 50 71  1  0
 51 53  1  0
 52 53  2  0
M  CHG  1   7  -1
M  END
> <Name>
15593124

> <AbsoluteEnergy>
96.4443

> <ConfNumber>
1

> <Ionization pH>
6.79_DPPPPPPPPPP

> <IonizationIndex>
1

> <NumberOfIonizations>
2

> <NumberOfStereoisomers>
1

> <NumberOfTautomers>
2

> <OBJECTID>
9223375721940058125

> <PUBCHEM_ATOM_DEF_STEREO_COUNT>
5

> <PUBCHEM_ATOM_UDEF_STEREO_COUNT>
0

> <PUBCHEM_BONDANNOTATIONS>
17  54  6
19  22  8
19  28  8
20  29  6
21  27  8
21  31  8
22  24  8
24  30  8
25  32  5
27  34  8
28  33  8
29  37  8
29  38  8
18  3  6
30  33  8
31  35  8
32  39  8
32  40  8
34  36  8
35  36  8
37  41  8
38  42  8
39  44  8
23  4  5
40  46  8
41  45  8
42  45  8
44  47  8
46  47  8
48  49  8
48  50  8
49  52  8
50  51  8
51  53  8
52  53  8

> <PUBCHEM_BOND_DEF_STEREO_COUNT>
0

> <PUBCHEM_BOND_UDEF_STEREO_COUNT>
0

> <PUBCHEM_CACTVS_COMPLEXITY>
1250

> <PUBCHEM_CACTVS_HBOND_ACCEPTOR>
16

> <PUBCHEM_CACTVS_HBOND_DONOR>
12

> <PUBCHEM_CACTVS_ROTATABLE_BOND>
6

> <PUBCHEM_CACTVS_SUBSKEYS>
AAADceB8PgAAAAAAAAAAAAAAAAAAAAAAAAA0aMGDAAAAAACRVAAAGgAACAAADRSgmAIwDoAABgCIAiDSCAACCAAkIAAIiAEGiMgNNzKGNRqCeSGlwBULuYfK7PzOoAADCAAIQABAAAYQABCAAAAAAAAAAA==

> <PUBCHEM_CACTVS_TAUTO_COUNT>
986

> <PUBCHEM_CACTVS_TPSA>
288

> <PUBCHEM_COMPONENT_COUNT>
1

> <PUBCHEM_COMPOUND_CANONICALIZED>
1

> <PUBCHEM_COMPOUND_CID>
15593124

> <PUBCHEM_COORDINATE_TYPE>
1
5
255

> <PUBCHEM_EXACT_MASS>
730.15338487

> <PUBCHEM_HEAVY_ATOM_COUNT>
53

> <PUBCHEM_ISOTOPIC_ATOM_COUNT>
0

> <PUBCHEM_IUPAC_CAS_NAME>
3,4,5-trihydroxybenzoic acid [(2R,3R)-2-(3,4-dihydroxyphenyl)-8-[(2R,3R,4R)-2-(3,4-dihydroxyphenyl)-3,5,7-trihydroxy-3,4-dihydro-2H-1-benzopyran-4-yl]-5,7-dihydroxy-3,4-dihydro-2H-1-benzopyran-3-yl] e
ster

> <PUBCHEM_IUPAC_INCHI>
InChI=1S/C37H30O16/c38-16-9-23(44)29-27(10-16)51-35(14-2-4-19(40)22(43)6-14)33(49)31(29)30-24(45)12-20(41)17-11-28(52-37(50)15-7-25(46)32(48)26(47)8-15)34(53-36(17)30)13-1-3-18(39)21(42)5-13/h1-10,12,
28,31,33-35,38-49H,11H2/t28-,31-,33-,34-,35-/m1/s1

> <PUBCHEM_IUPAC_INCHIKEY>
VLFKNLZNDSEVBZ-BTWXELLASA-N

> <PUBCHEM_IUPAC_NAME>
[(2R,3R)-2-(3,4-dihydroxyphenyl)-8-[(2R,3R,4R)-2-(3,4-dihydroxyphenyl)-3,5,7-trihydroxy-3,4-dihydro-2H-chromen-4-yl]-5,7-dihydroxy-3,4-dihydro-2H-chromen-3-yl] 3,4,5-trihydroxybenzoate

> <PUBCHEM_IUPAC_NAME_MARKUP>
[(2<I>R</I>,3<I>R</I>)-2-(3,4-dihydroxyphenyl)-8-[(2<I>R</I>,3<I>R</I>,4<I>R</I>)-2-(3,4-dihydroxyphenyl)-3,5,7-trihydroxy-3,4-dihydro-2<I>H</I>-chromen-4-yl]-5,7-dihydroxy-3,4-dihydro-2<I>H</I>-chrom
en-3-yl] 3,4,5-trihydroxybenzoate

> <PUBCHEM_IUPAC_OPENEYE_NAME>
[(2R,3R)-2-(3,4-dihydroxyphenyl)-8-[(2R,3R,4R)-2-(3,4-dihydroxyphenyl)-3,5,7-trihydroxy-chroman-4-yl]-5,7-dihydroxy-chroman-3-yl] 3,4,5-trihydroxybenzoate

> <PUBCHEM_IUPAC_SYSTEMATIC_NAME>
[(2R,3R)-2-[3,4-bis(oxidanyl)phenyl]-8-[(2R,3R,4R)-2-[3,4-bis(oxidanyl)phenyl]-3,5,7-tris(oxidanyl)-3,4-dihydro-2H-chromen-4-yl]-5,7-bis(oxidanyl)-3,4-dihydro-2H-chromen-3-yl] 3,4,5-tris(oxidanyl)benz
oate

> <PUBCHEM_IUPAC_TRADITIONAL_NAME>
3,4,5-trihydroxybenzoic acid [(2R,3R)-2-(3,4-dihydroxyphenyl)-8-[(2R,3R,4R)-2-(3,4-dihydroxyphenyl)-3,5,7-trihydroxy-chroman-4-yl]-5,7-dihydroxy-chroman-3-yl] ester

> <PUBCHEM_MOLECULAR_FORMULA>
C37H30O16

> <PUBCHEM_MOLECULAR_WEIGHT>
730.6

> <PUBCHEM_MONOISOTOPIC_WEIGHT>
730.15338487

> <PUBCHEM_OPENEYE_CAN_SMILES>
C1C(C(OC2=C1C(=CC(=C2C3C(C(OC4=CC(=CC(=C34)O)O)C5=CC(=C(C=C5)O)O)O)O)O)C6=CC(=C(C=C6)O)O)OC(=O)C7=CC(=C(C(=C7)O)O)O

> <PUBCHEM_OPENEYE_ISO_SMILES>
C1[C@H]([C@H](OC2=C1C(=CC(=C2[C@@H]3[C@H]([C@H](OC4=CC(=CC(=C34)O)O)C5=CC(=C(C=C5)O)O)O)O)O)C6=CC(=C(C=C6)O)O)OC(=O)C7=CC(=C(C(=C7)O)O)O

> <PUBCHEM_TOTAL_CHARGE>
0

> <PUBCHEM_XLOGP3_AA>
3.5

> <RelativeEnergy>
0

> <StereoisomerIndex>
1

> <TautomerIndex>
1

> <LibDock Warning>
no hit found

> <ErrorText>
LibDock failed

$$$$
15593124
  SciTegic09112317153D

 82 88  0  0  0  0            999 V2000
    1.0750    0.4780   -0.3960 O   0  0  0  1  0  0
    1.7110   -1.0170    4.9600 O   0  0  0  1  0  0
    3.1150    0.8460    2.1360 O   0  0  0  1  0  0
   -0.4980    0.0010   -2.7640 O   0  0  0  1  0  0
    2.3720   -3.4360    2.0170 O   0  0  0  1  0  0
    2.8680   -3.3440   -2.7130 O   0  0  0  1  0  0
   -0.9130   -2.4710    1.1310 O   0  5  0  1  0  0
   -1.5900   -4.3930    5.4410 O   0  0  0  1  0  0
   -0.4810    3.0890    7.0300 O   0  0  0  1  0  0
   -0.0160    5.9490   -2.4570 O   0  0  0  1  0  0
   -1.3180    4.4510    4.8080 O   0  0  0  1  0  0
   -1.3290    1.6300   -4.1470 O   0  0  0  1  0  0
   -2.2660    5.7250   -0.9190 O   0  0  0  1  0  0
   -3.9150   -0.8020   -7.5970 O   0  0  0  1  0  0
   -2.0920   -4.2670   -4.6960 O   0  0  0  1  0  0
   -3.5830   -3.4410   -6.8640 O   0  0  0  1  0  0
    1.3070   -0.8090    2.0960 C   0  0  1  1  0  0
    2.5610   -0.2590    2.8310 C   0  0  2  1  0  0
    1.7140   -1.4660    0.8300 C   0  0  0  1  0  0
    2.2480    0.1270    4.2910 C   0  0  1  1  0  0
    0.4990   -1.7310    2.9670 C   0  0  0  1  0  0
    1.5770   -0.7780   -0.4020 C   0  0  0  1  0  0
    0.8410    0.4860   -2.8210 C   0  0  1  1  0  0
    1.9630   -1.4170   -1.6170 C   0  0  0  1  0  0
    1.1540    1.3110   -1.5600 C   0  0  1  1  0  0
    1.8060   -0.7080   -2.9130 C   0  0  0  1  0  0
    0.7810   -1.8010    4.3690 C   0  0  0  1  0  0
    2.2400   -2.7810    0.8550 C   0  0  0  1  0  0
    1.3020    1.2760    4.4290 C   0  0  0  1  0  0
    2.4920   -2.7320   -1.5800 C   0  0  0  1  0  0
   -0.5540   -2.5420    2.4440 C   0  0  0  1  0  0
    0.2480    2.4790   -1.3900 C   0  0  0  1  0  0
    2.6290   -3.4090   -0.3490 C   0  0  0  1  0  0
    0.0780   -2.7100    5.1920 C   0  0  0  1  0  0
   -1.2530   -3.4440    3.2800 C   0  0  0  1  0  0
   -0.9310   -3.5330    4.6520 C   0  0  0  1  0  0
    0.8390    1.6570    5.7000 C   0  0  0  1  0  0
    0.8720    1.9760    3.2880 C   0  0  0  1  0  0
    0.5490    3.7010   -2.0200 C   0  0  0  1  0  0
   -0.9080    2.3660   -0.5990 C   0  0  0  1  0  0
   -0.0520    2.7370    5.8340 C   0  0  0  1  0  0
   -0.0190    3.0550    3.4200 C   0  0  0  1  0  0
   -1.2060    0.3430   -3.8360 C   0  0  0  1  0  0
   -0.3040    4.8080   -1.8620 C   0  0  0  1  0  0
   -0.4820    3.4390    4.6910 C   0  0  0  1  0  0
   -1.7610    3.4730   -0.4420 C   0  0  0  1  0  0
   -1.4620    4.6920   -1.0700 C   0  0  0  1  0  0
   -1.7930   -0.5990   -4.5940 C   0  0  0  1  0  0
   -1.6470   -2.0320   -4.2620 C   0  0  0  1  0  0
   -2.5960   -0.2240   -5.7750 C   0  0  0  1  0  0
   -3.1940   -1.1630   -6.5380 C   0  0  0  1  0  0
   -2.2370   -2.9840   -5.0120 C   0  0  0  1  0  0
   -3.0460   -2.5950   -6.1900 C   0  0  0  1  0  0
    0.6480    0.0230    1.8380 H   0  0  0  1  0  0
    3.3400   -1.0250    2.8610 H   0  0  0  1  0  0
    3.1680    0.3980    4.8100 H   0  0  0  1  0  0
    0.9300    1.1000   -3.7190 H   0  0  0  1  0  0
    2.1760    1.6880   -1.6250 H   0  0  0  1  0  0
    1.4610   -1.3960   -3.6870 H   0  0  0  1  0  0
    2.7900   -0.3530   -3.2250 H   0  0  0  1  0  0
    3.0330   -4.4130   -0.3250 H   0  0  0  1  0  0
    0.3140   -2.7740    6.2430 H   0  0  0  1  0  0
   -2.0340   -4.0670    2.8740 H   0  0  0  1  0  0
    1.1670    1.1220    6.5780 H   0  0  0  1  0  0
    1.2240    1.6880    2.3070 H   0  0  0  1  0  0
    1.4380    3.7910   -2.6280 H   0  0  0  1  0  0
   -1.1450    1.4310   -0.1130 H   0  0  0  1  0  0
   -0.3450    3.5910    2.5420 H   0  0  0  1  0  0
   -2.6490    3.3810    0.1660 H   0  0  0  1  0  0
   -1.0580   -2.3260   -3.4040 H   0  0  0  1  0  0
   -2.7090    0.8190   -6.0380 H   0  0  0  1  0  0
    3.4950    0.5040    1.3110 H   0  0  0  1  0  0
    2.7330   -4.3340    2.0160 H   0  0  0  1  0  0
    3.2270   -4.2390   -2.6710 H   0  0  0  1  0  0
   -2.2800   -4.9520    5.0580 H   0  0  0  1  0  0
   -1.0930    3.8330    7.1110 H   0  0  0  1  0  0
   -0.4490    6.7590   -2.1570 H   0  0  0  1  0  0
   -1.6020    4.9220    4.0150 H   0  0  0  1  0  0
   -2.2040    6.4690   -1.5320 H   0  0  0  1  0  0
   -4.3370   -1.4840   -8.1350 H   0  0  0  1  0  0
   -2.5190   -4.9410   -5.2410 H   0  0  0  1  0  0
   -0.9910    2.3000   -3.5390 H   0  0  0  1  0  0
  1 22  1  0
  1 25  1  0
  2 20  1  0
  2 27  1  0
  3 18  1  0
  3 72  1  0
  4 23  1  0
  4 43  1  0
  5 28  1  0
  5 73  1  0
  6 30  1  0
  6 74  1  0
  7 31  1  0
  8 36  1  0
  8 75  1  0
  9 41  1  0
  9 76  1  0
 10 44  1  0
 10 77  1  0
 11 45  1  0
 11 78  1  0
 12 43  1  0
 12 82  1  0
 13 47  1  0
 13 79  1  0
 14 51  1  0
 14 80  1  0
 15 52  1  0
 15 81  1  0
 16 53  2  0
 17 18  1  0
 17 19  1  0
 17 21  1  0
 17 54  1  0
 18 20  1  0
 18 55  1  0
 19 22  2  0
 19 28  1  0
 20 29  1  0
 20 56  1  0
 21 27  2  0
 21 31  1  0
 22 24  1  0
 23 25  1  0
 23 26  1  0
 23 57  1  0
 24 26  1  0
 24 30  2  0
 25 32  1  0
 25 58  1  0
 26 59  1  0
 26 60  1  0
 27 34  1  0
 28 33  2  0
 29 37  2  0
 29 38  1  0
 30 33  1  0
 31 35  2  0
 32 39  2  0
 32 40  1  0
 33 61  1  0
 34 36  2  0
 34 62  1  0
 35 36  1  0
 35 63  1  0
 37 41  1  0
 37 64  1  0
 38 42  2  0
 38 65  1  0
 39 44  1  0
 39 66  1  0
 40 46  2  0
 40 67  1  0
 41 45  2  0
 42 45  1  0
 42 68  1  0
 43 48  2  0
 44 47  2  0
 46 47  1  0
 46 69  1  0
 48 49  1  0
 48 50  1  0
 49 52  2  0
 49 70  1  0
 50 51  2  0
 50 71  1  0
 51 53  1  0
 52 53  1  0
M  CHG  1   7  -1
M  END
> <Name>
15593124

> <AbsoluteEnergy>
81.0155

> <ConfNumber>
1

> <Ionization pH>
6.79_DPPPPPPPPPP

> <IonizationIndex>
1

> <NumberOfIonizations>
2

> <NumberOfStereoisomers>
1

> <NumberOfTautomers>
2

> <OBJECTID>
9223375726235025421

> <PUBCHEM_ATOM_DEF_STEREO_COUNT>
5

> <PUBCHEM_ATOM_UDEF_STEREO_COUNT>
0

> <PUBCHEM_BONDANNOTATIONS>
17  54  6
19  22  8
19  28  8
20  29  6
21  27  8
21  31  8
22  24  8
24  30  8
25  32  5
27  34  8
28  33  8
29  37  8
29  38  8
18  3  6
30  33  8
31  35  8
32  39  8
32  40  8
34  36  8
35  36  8
37  41  8
38  42  8
39  44  8
23  4  5
40  46  8
41  45  8
42  45  8
44  47  8
46  47  8
48  49  8
48  50  8
49  52  8
50  51  8
51  53  8
52  53  8

> <PUBCHEM_BOND_DEF_STEREO_COUNT>
0

> <PUBCHEM_BOND_UDEF_STEREO_COUNT>
0

> <PUBCHEM_CACTVS_COMPLEXITY>
1250

> <PUBCHEM_CACTVS_HBOND_ACCEPTOR>
16

> <PUBCHEM_CACTVS_HBOND_DONOR>
12

> <PUBCHEM_CACTVS_ROTATABLE_BOND>
6

> <PUBCHEM_CACTVS_SUBSKEYS>
AAADceB8PgAAAAAAAAAAAAAAAAAAAAAAAAA0aMGDAAAAAACRVAAAGgAACAAADRSgmAIwDoAABgCIAiDSCAACCAAkIAAIiAEGiMgNNzKGNRqCeSGlwBULuYfK7PzOoAADCAAIQABAAAYQABCAAAAAAAAAAA==

> <PUBCHEM_CACTVS_TAUTO_COUNT>
986

> <PUBCHEM_CACTVS_TPSA>
288

> <PUBCHEM_COMPONENT_COUNT>
1

> <PUBCHEM_COMPOUND_CANONICALIZED>
1

> <PUBCHEM_COMPOUND_CID>
15593124

> <PUBCHEM_COORDINATE_TYPE>
1
5
255

> <PUBCHEM_EXACT_MASS>
730.15338487

> <PUBCHEM_HEAVY_ATOM_COUNT>
53

> <PUBCHEM_ISOTOPIC_ATOM_COUNT>
0

> <PUBCHEM_IUPAC_CAS_NAME>
3,4,5-trihydroxybenzoic acid [(2R,3R)-2-(3,4-dihydroxyphenyl)-8-[(2R,3R,4R)-2-(3,4-dihydroxyphenyl)-3,5,7-trihydroxy-3,4-dihydro-2H-1-benzopyran-4-yl]-5,7-dihydroxy-3,4-dihydro-2H-1-benzopyran-3-yl] e
ster

> <PUBCHEM_IUPAC_INCHI>
InChI=1S/C37H30O16/c38-16-9-23(44)29-27(10-16)51-35(14-2-4-19(40)22(43)6-14)33(49)31(29)30-24(45)12-20(41)17-11-28(52-37(50)15-7-25(46)32(48)26(47)8-15)34(53-36(17)30)13-1-3-18(39)21(42)5-13/h1-10,12,
28,31,33-35,38-49H,11H2/t28-,31-,33-,34-,35-/m1/s1

> <PUBCHEM_IUPAC_INCHIKEY>
VLFKNLZNDSEVBZ-BTWXELLASA-N

> <PUBCHEM_IUPAC_NAME>
[(2R,3R)-2-(3,4-dihydroxyphenyl)-8-[(2R,3R,4R)-2-(3,4-dihydroxyphenyl)-3,5,7-trihydroxy-3,4-dihydro-2H-chromen-4-yl]-5,7-dihydroxy-3,4-dihydro-2H-chromen-3-yl] 3,4,5-trihydroxybenzoate

> <PUBCHEM_IUPAC_NAME_MARKUP>
[(2<I>R</I>,3<I>R</I>)-2-(3,4-dihydroxyphenyl)-8-[(2<I>R</I>,3<I>R</I>,4<I>R</I>)-2-(3,4-dihydroxyphenyl)-3,5,7-trihydroxy-3,4-dihydro-2<I>H</I>-chromen-4-yl]-5,7-dihydroxy-3,4-dihydro-2<I>H</I>-chrom
en-3-yl] 3,4,5-trihydroxybenzoate

> <PUBCHEM_IUPAC_OPENEYE_NAME>
[(2R,3R)-2-(3,4-dihydroxyphenyl)-8-[(2R,3R,4R)-2-(3,4-dihydroxyphenyl)-3,5,7-trihydroxy-chroman-4-yl]-5,7-dihydroxy-chroman-3-yl] 3,4,5-trihydroxybenzoate

> <PUBCHEM_IUPAC_SYSTEMATIC_NAME>
[(2R,3R)-2-[3,4-bis(oxidanyl)phenyl]-8-[(2R,3R,4R)-2-[3,4-bis(oxidanyl)phenyl]-3,5,7-tris(oxidanyl)-3,4-dihydro-2H-chromen-4-yl]-5,7-bis(oxidanyl)-3,4-dihydro-2H-chromen-3-yl] 3,4,5-tris(oxidanyl)benz
oate

> <PUBCHEM_IUPAC_TRADITIONAL_NAME>
3,4,5-trihydroxybenzoic acid [(2R,3R)-2-(3,4-dihydroxyphenyl)-8-[(2R,3R,4R)-2-(3,4-dihydroxyphenyl)-3,5,7-trihydroxy-chroman-4-yl]-5,7-dihydroxy-chroman-3-yl] ester

> <PUBCHEM_MOLECULAR_FORMULA>
C37H30O16

> <PUBCHEM_MOLECULAR_WEIGHT>
730.6

> <PUBCHEM_MONOISOTOPIC_WEIGHT>
730.15338487

> <PUBCHEM_OPENEYE_CAN_SMILES>
C1C(C(OC2=C1C(=CC(=C2C3C(C(OC4=CC(=CC(=C34)O)O)C5=CC(=C(C=C5)O)O)O)O)O)C6=CC(=C(C=C6)O)O)OC(=O)C7=CC(=C(C(=C7)O)O)O

> <PUBCHEM_OPENEYE_ISO_SMILES>
C1[C@H]([C@H](OC2=C1C(=CC(=C2[C@@H]3[C@H]([C@H](OC4=CC(=CC(=C34)O)O)C5=CC(=C(C=C5)O)O)O)O)O)C6=CC(=C(C=C6)O)O)OC(=O)C7=CC(=C(C(=C7)O)O)O

> <PUBCHEM_TOTAL_CHARGE>
0

> <PUBCHEM_XLOGP3_AA>
3.5

> <RelativeEnergy>
0

> <StereoisomerIndex>
1

> <TautomerIndex>
2

> <LibDock Warning>
no hit found

> <ErrorText>
LibDock failed

$$$$
15593124
  SciTegic09112317153D

 81 87  0  0  0  0            999 V2000
    0.3500    0.3150   -0.6180 O   0  0  0  1  0  0
   -0.1370   -4.6320   -3.2390 O   0  0  0  1  0  0
    2.2080   -1.8920   -2.5920 O   0  0  0  1  0  0
    0.9920    3.7080    0.6620 O   0  0  0  1  0  0
   -1.3050   -1.3440   -4.8010 O   0  5  0  1  0  0
   -1.1530    3.3660   -4.0360 O   0  0  0  1  0  0
   -2.9020   -1.0890   -1.3770 O   0  5  0  1  0  0
   -4.8410   -5.1640   -2.9110 O   0  0  0  1  0  0
    1.6560   -7.5240    0.5540 O   0  0  0  1  0  0
   -3.2280   -0.6290    2.8630 O   0  0  0  1  0  0
    2.1950   -5.6510    2.4730 O   0  0  0  1  0  0
    2.8890    2.7350    1.3510 O   0  0  0  1  0  0
   -4.4050    1.8250    3.1560 O   0  0  0  1  0  0
    0.0750    7.2430    4.0240 O   0  0  0  1  0  0
    4.0660    5.2450    5.5790 O   0  0  0  1  0  0
    2.0870    7.1040    5.8650 O   0  0  0  1  0  0
   -0.2170   -1.9140   -2.2310 C   0  0  1  1  0  0
    0.9980   -2.5140   -2.9930 C   0  0  2  1  0  0
   -0.4630   -0.5260   -2.6960 C   0  0  0  1  0  0
    1.0920   -4.0420   -2.8080 C   0  0  1  1  0  0
   -1.4440   -2.7700   -2.3620 C   0  0  0  1  0  0
   -0.1570    0.5680   -1.8470 C   0  0  0  1  0  0
    0.9130    2.6580   -0.2930 C   0  0  1  1  0  0
   -0.3790    1.9020   -2.3040 C   0  0  0  1  0  0
    0.4610    1.3460    0.3740 C   0  0  1  1  0  0
   -0.0420    3.0560   -1.4320 C   0  0  0  1  0  0
   -1.3290   -4.0920   -2.9000 C   0  0  0  1  0  0
   -1.0050   -0.2980   -3.9840 C   0  0  0  1  0  0
    1.3850   -4.4690   -1.4060 C   0  0  0  1  0  0
   -0.9260    2.1190   -3.5950 C   0  0  0  1  0  0
   -2.7380   -2.3110   -1.9570 C   0  0  0  1  0  0
   -0.8300    1.4730    1.1130 C   0  0  0  1  0  0
   -1.2380    1.0230   -4.4290 C   0  0  0  1  0  0
   -2.4820   -4.8870   -3.0900 C   0  0  0  1  0  0
   -3.8790   -3.1200   -2.1490 C   0  0  0  1  0  0
   -3.7550   -4.4030   -2.7230 C   0  0  0  1  0  0
    1.3850   -5.8360   -1.0700 C   0  0  0  1  0  0
    1.6620   -3.5070   -0.4180 C   0  0  0  1  0  0
   -1.4430    0.3320    1.6590 C   0  0  0  1  0  0
   -1.4350    2.7330    1.2640 C   0  0  0  1  0  0
    1.6590   -6.2420    0.2470 C   0  0  0  1  0  0
    1.9370   -3.9130    0.8990 C   0  0  0  1  0  0
    2.0170    3.5620    1.4950 C   0  0  0  1  0  0
   -2.6590    0.4450    2.3540 C   0  0  0  1  0  0
    1.9350   -5.2780    1.2350 C   0  0  0  1  0  0
   -2.6500    2.8490    1.9590 C   0  0  0  1  0  0
   -3.2640    1.7070    2.5050 C   0  0  0  1  0  0
    2.0360    4.5020    2.6550 C   0  0  0  1  0  0
    3.0710    4.4310    3.6020 C   0  0  0  1  0  0
    1.0180    5.4600    2.8010 C   0  0  0  1  0  0
    1.0330    6.3470    3.8920 C   0  0  0  1  0  0
    3.0910    5.3160    4.6940 C   0  0  0  1  0  0
    2.0710    6.2750    4.8410 C   0  0  0  1  0  0
    0.0140   -1.8690   -1.1660 H   0  0  0  1  0  0
    0.8950   -2.3250   -4.0650 H   0  0  0  1  0  0
    1.8810   -4.4480   -3.4440 H   0  0  0  1  0  0
    1.9170    2.5180   -0.7000 H   0  0  0  1  0  0
    1.2130    1.0220    1.0960 H   0  0  0  1  0  0
    0.4100    3.8560   -2.0190 H   0  0  0  1  0  0
   -0.9700    3.4560   -1.0200 H   0  0  0  1  0  0
   -1.6550    1.1940   -5.4120 H   0  0  0  1  0  0
   -2.3870   -5.8740   -3.5190 H   0  0  0  1  0  0
   -4.8560   -2.7600   -1.8590 H   0  0  0  1  0  0
    1.1720   -6.5770   -1.8270 H   0  0  0  1  0  0
    1.6650   -2.4560   -0.6690 H   0  0  0  1  0  0
   -0.9810   -0.6390    1.5440 H   0  0  0  1  0  0
   -0.9670    3.6130    0.8450 H   0  0  0  1  0  0
    2.1480   -3.1710    1.6560 H   0  0  0  1  0  0
   -3.1130    3.8170    2.0720 H   0  0  0  1  0  0
    3.8580    3.6980    3.4970 H   0  0  0  1  0  0
    0.2180    5.5210    2.0760 H   0  0  0  1  0  0
    2.1320   -0.9500   -2.8100 H   0  0  0  1  0  0
   -1.0060    4.1150   -3.4430 H   0  0  0  1  0  0
   -5.7090   -4.8240   -2.6560 H   0  0  0  1  0  0
    1.4630   -8.1740   -0.1360 H   0  0  0  1  0  0
   -2.8020   -1.4870    2.7530 H   0  0  0  1  0  0
    2.1910   -6.5910    2.6940 H   0  0  0  1  0  0
   -4.8090    2.6980    3.2500 H   0  0  0  1  0  0
    0.0950    7.8480    4.7770 H   0  0  0  1  0  0
    4.7600    4.5830    5.4660 H   0  0  0  1  0  0
    2.8060    7.0470    6.5080 H   0  0  0  1  0  0
  1 22  1  0
  1 25  1  0
  2 20  1  0
  2 27  1  0
  3 18  1  0
  3 72  1  0
  4 23  1  0
  4 43  1  0
  5 28  1  0
  6 30  1  0
  6 73  1  0
  7 31  1  0
  8 36  1  0
  8 74  1  0
  9 41  1  0
  9 75  1  0
 10 44  1  0
 10 76  1  0
 11 45  1  0
 11 77  1  0
 12 43  2  0
 13 47  1  0
 13 78  1  0
 14 51  1  0
 14 79  1  0
 15 52  1  0
 15 80  1  0
 16 53  1  0
 16 81  1  0
 17 18  1  0
 17 19  1  0
 17 21  1  0
 17 54  1  0
 18 20  1  0
 18 55  1  0
 19 22  2  0
 19 28  1  0
 20 29  1  0
 20 56  1  0
 21 27  2  0
 21 31  1  0
 22 24  1  0
 23 25  1  0
 23 26  1  0
 23 57  1  0
 24 26  1  0
 24 30  2  0
 25 32  1  0
 25 58  1  0
 26 59  1  0
 26 60  1  0
 27 34  1  0
 28 33  2  0
 29 37  2  0
 29 38  1  0
 30 33  1  0
 31 35  2  0
 32 39  2  0
 32 40  1  0
 33 61  1  0
 34 36  2  0
 34 62  1  0
 35 36  1  0
 35 63  1  0
 37 41  1  0
 37 64  1  0
 38 42  2  0
 38 65  1  0
 39 44  1  0
 39 66  1  0
 40 46  2  0
 40 67  1  0
 41 45  2  0
 42 45  1  0
 42 68  1  0
 43 48  1  0
 44 47  2  0
 46 47  1  0
 46 69  1  0
 48 49  2  0
 48 50  1  0
 49 52  1  0
 49 70  1  0
 50 51  2  0
 50 71  1  0
 51 53  1  0
 52 53  2  0
M  CHG  2   5  -1   7  -1
M  END
> <Name>
15593124

> <AbsoluteEnergy>
92.7455

> <ConfNumber>
1

> <Ionization pH>
6.79_DDPPPPPPPPP

> <IonizationIndex>
2

> <NumberOfIonizations>
2

> <NumberOfStereoisomers>
1

> <NumberOfTautomers>
2

> <OBJECTID>
9223375730529992717

> <PUBCHEM_ATOM_DEF_STEREO_COUNT>
5

> <PUBCHEM_ATOM_UDEF_STEREO_COUNT>
0

> <PUBCHEM_BONDANNOTATIONS>
17  54  6
19  22  8
19  28  8
20  29  6
21  27  8
21  31  8
22  24  8
24  30  8
25  32  5
27  34  8
28  33  8
29  37  8
29  38  8
18  3  6
30  33  8
31  35  8
32  39  8
32  40  8
34  36  8
35  36  8
37  41  8
38  42  8
39  44  8
23  4  5
40  46  8
41  45  8
42  45  8
44  47  8
46  47  8
48  49  8
48  50  8
49  52  8
50  51  8
51  53  8
52  53  8

> <PUBCHEM_BOND_DEF_STEREO_COUNT>
0

> <PUBCHEM_BOND_UDEF_STEREO_COUNT>
0

> <PUBCHEM_CACTVS_COMPLEXITY>
1250

> <PUBCHEM_CACTVS_HBOND_ACCEPTOR>
16

> <PUBCHEM_CACTVS_HBOND_DONOR>
12

> <PUBCHEM_CACTVS_ROTATABLE_BOND>
6

> <PUBCHEM_CACTVS_SUBSKEYS>
AAADceB8PgAAAAAAAAAAAAAAAAAAAAAAAAA0aMGDAAAAAACRVAAAGgAACAAADRSgmAIwDoAABgCIAiDSCAACCAAkIAAIiAEGiMgNNzKGNRqCeSGlwBULuYfK7PzOoAADCAAIQABAAAYQABCAAAAAAAAAAA==

> <PUBCHEM_CACTVS_TAUTO_COUNT>
986

> <PUBCHEM_CACTVS_TPSA>
288

> <PUBCHEM_COMPONENT_COUNT>
1

> <PUBCHEM_COMPOUND_CANONICALIZED>
1

> <PUBCHEM_COMPOUND_CID>
15593124

> <PUBCHEM_COORDINATE_TYPE>
1
5
255

> <PUBCHEM_EXACT_MASS>
730.15338487

> <PUBCHEM_HEAVY_ATOM_COUNT>
53

> <PUBCHEM_ISOTOPIC_ATOM_COUNT>
0

> <PUBCHEM_IUPAC_CAS_NAME>
3,4,5-trihydroxybenzoic acid [(2R,3R)-2-(3,4-dihydroxyphenyl)-8-[(2R,3R,4R)-2-(3,4-dihydroxyphenyl)-3,5,7-trihydroxy-3,4-dihydro-2H-1-benzopyran-4-yl]-5,7-dihydroxy-3,4-dihydro-2H-1-benzopyran-3-yl] e
ster

> <PUBCHEM_IUPAC_INCHI>
InChI=1S/C37H30O16/c38-16-9-23(44)29-27(10-16)51-35(14-2-4-19(40)22(43)6-14)33(49)31(29)30-24(45)12-20(41)17-11-28(52-37(50)15-7-25(46)32(48)26(47)8-15)34(53-36(17)30)13-1-3-18(39)21(42)5-13/h1-10,12,
28,31,33-35,38-49H,11H2/t28-,31-,33-,34-,35-/m1/s1

> <PUBCHEM_IUPAC_INCHIKEY>
VLFKNLZNDSEVBZ-BTWXELLASA-N

> <PUBCHEM_IUPAC_NAME>
[(2R,3R)-2-(3,4-dihydroxyphenyl)-8-[(2R,3R,4R)-2-(3,4-dihydroxyphenyl)-3,5,7-trihydroxy-3,4-dihydro-2H-chromen-4-yl]-5,7-dihydroxy-3,4-dihydro-2H-chromen-3-yl] 3,4,5-trihydroxybenzoate

> <PUBCHEM_IUPAC_NAME_MARKUP>
[(2<I>R</I>,3<I>R</I>)-2-(3,4-dihydroxyphenyl)-8-[(2<I>R</I>,3<I>R</I>,4<I>R</I>)-2-(3,4-dihydroxyphenyl)-3,5,7-trihydroxy-3,4-dihydro-2<I>H</I>-chromen-4-yl]-5,7-dihydroxy-3,4-dihydro-2<I>H</I>-chrom
en-3-yl] 3,4,5-trihydroxybenzoate

> <PUBCHEM_IUPAC_OPENEYE_NAME>
[(2R,3R)-2-(3,4-dihydroxyphenyl)-8-[(2R,3R,4R)-2-(3,4-dihydroxyphenyl)-3,5,7-trihydroxy-chroman-4-yl]-5,7-dihydroxy-chroman-3-yl] 3,4,5-trihydroxybenzoate

> <PUBCHEM_IUPAC_SYSTEMATIC_NAME>
[(2R,3R)-2-[3,4-bis(oxidanyl)phenyl]-8-[(2R,3R,4R)-2-[3,4-bis(oxidanyl)phenyl]-3,5,7-tris(oxidanyl)-3,4-dihydro-2H-chromen-4-yl]-5,7-bis(oxidanyl)-3,4-dihydro-2H-chromen-3-yl] 3,4,5-tris(oxidanyl)benz
oate

> <PUBCHEM_IUPAC_TRADITIONAL_NAME>
3,4,5-trihydroxybenzoic acid [(2R,3R)-2-(3,4-dihydroxyphenyl)-8-[(2R,3R,4R)-2-(3,4-dihydroxyphenyl)-3,5,7-trihydroxy-chroman-4-yl]-5,7-dihydroxy-chroman-3-yl] ester

> <PUBCHEM_MOLECULAR_FORMULA>
C37H30O16

> <PUBCHEM_MOLECULAR_WEIGHT>
730.6

> <PUBCHEM_MONOISOTOPIC_WEIGHT>
730.15338487

> <PUBCHEM_OPENEYE_CAN_SMILES>
C1C(C(OC2=C1C(=CC(=C2C3C(C(OC4=CC(=CC(=C34)O)O)C5=CC(=C(C=C5)O)O)O)O)O)C6=CC(=C(C=C6)O)O)OC(=O)C7=CC(=C(C(=C7)O)O)O

> <PUBCHEM_OPENEYE_ISO_SMILES>
C1[C@H]([C@H](OC2=C1C(=CC(=C2[C@@H]3[C@H]([C@H](OC4=CC(=CC(=C34)O)O)C5=CC(=C(C=C5)O)O)O)O)O)C6=CC(=C(C=C6)O)O)OC(=O)C7=CC(=C(C(=C7)O)O)O

> <PUBCHEM_TOTAL_CHARGE>
0

> <PUBCHEM_XLOGP3_AA>
3.5

> <RelativeEnergy>
0

> <StereoisomerIndex>
1

> <TautomerIndex>
1

> <LibDock Warning>
no hit found

> <ErrorText>
LibDock failed

$$$$
15593124
  SciTegic09112317153D

 81 87  0  0  0  0            999 V2000
    0.6620    0.4200   -0.5470 O   0  0  0  1  0  0
   -1.1770   -4.1070   -3.3550 O   0  0  0  1  0  0
    1.9600   -2.2240   -3.1820 O   0  0  0  1  0  0
   -0.5590    2.7100    0.7010 O   0  0  0  1  0  0
   -0.9490   -0.6510   -4.9370 O   0  5  0  1  0  0
    0.1100    3.8780   -3.8530 O   0  0  0  1  0  0
   -2.3380   -0.0480   -0.9390 O   0  5  0  1  0  0
   -5.6680   -3.2650   -2.0740 O   0  0  0  1  0  0
    0.3710   -7.6540   -0.0380 O   0  0  0  1  0  0
   -0.4450   -1.8290    3.6060 O   0  0  0  1  0  0
    1.7970   -6.1530    1.7470 O   0  0  0  1  0  0
   -1.0470    1.9330    2.8040 O   0  0  0  1  0  0
    1.2380   -0.8610    5.5350 O   0  0  0  1  0  0
    0.4090    7.5280    1.3180 O   0  0  0  1  0  0
   -0.0940    5.7400    5.8230 O   0  0  0  1  0  0
    0.4350    7.7970    4.0630 O   0  0  0  1  0  0
   -0.2420   -1.5600   -2.3320 C   0  0  1  1  0  0
    0.5650   -2.4360   -3.3320 C   0  0  2  1  0  0
   -0.1450   -0.1320   -2.7240 C   0  0  0  1  0  0
    0.2310   -3.9340   -3.1830 C   0  0  1  1  0  0
   -1.6720   -2.0090   -2.2130 C   0  0  0  1  0  0
    0.3150    0.8290   -1.7890 C   0  0  0  1  0  0
    0.7970    2.7130    0.2640 C   0  0  1  1  0  0
    0.3960    2.2020   -2.1660 C   0  0  0  1  0  0
    1.3740    1.2870    0.3430 C   0  0  1  1  0  0
    0.8580    3.2190   -1.1870 C   0  0  0  1  0  0
   -2.0630   -3.2670   -2.7740 C   0  0  0  1  0  0
   -0.5100    0.2680   -4.0330 C   0  0  0  1  0  0
    0.6480   -4.5220   -1.8720 C   0  0  0  1  0  0
    0.0320    2.5910   -3.4820 C   0  0  0  1  0  0
   -2.6620   -1.2230   -1.5490 C   0  0  0  1  0  0
    1.3380    0.7180    1.7160 C   0  0  0  1  0  0
   -0.4200    1.6260   -4.4090 C   0  0  0  1  0  0
   -3.4160   -3.6760   -2.7300 C   0  0  0  1  0  0
   -4.0110   -1.6470   -1.5100 C   0  0  0  1  0  0
   -4.3880   -2.8690   -2.1070 C   0  0  0  1  0  0
    0.3060   -5.8510   -1.5570 C   0  0  0  1  0  0
    1.3810   -3.7540   -0.9530 C   0  0  0  1  0  0
    0.4400   -0.3180    2.0250 C   0  0  0  1  0  0
    2.2020    1.2160    2.7080 C   0  0  0  1  0  0
    0.6950   -6.4090   -0.3280 C   0  0  0  1  0  0
    1.7720   -4.3100    0.2770 C   0  0  0  1  0  0
   -0.6690    2.9290    2.0090 C   0  0  0  1  0  0
    0.4000   -0.8590    3.3230 C   0  0  0  1  0  0
    1.4300   -5.6370    0.5940 C   0  0  0  1  0  0
    2.1650    0.6750    4.0060 C   0  0  0  1  0  0
    1.2650   -0.3610    4.3150 C   0  0  0  1  0  0
   -0.4010    4.1440    2.5200 C   0  0  0  1  0  0
   -0.3820    4.3570    3.9820 C   0  0  0  1  0  0
   -0.1200    5.2900    1.6320 C   0  0  0  1  0  0
    0.1580    6.5090    2.1370 C   0  0  0  1  0  0
   -0.1050    5.5690    4.5040 C   0  0  0  1  0  0
    0.1810    6.7090    3.6030 C   0  0  0  1  0  0
    0.1940   -1.6580   -1.3350 H   0  0  0  1  0  0
    0.3190   -2.1520   -4.3570 H   0  0  0  1  0  0
    0.7240   -4.5060   -3.9680 H   0  0  0  1  0  0
    1.3500    3.3930    0.9150 H   0  0  0  1  0  0
    2.4160    1.3080    0.0180 H   0  0  0  1  0  0
    1.8870    3.4840   -1.4340 H   0  0  0  1  0  0
    0.2700    4.1320   -1.2780 H   0  0  0  1  0  0
   -0.6980    1.9300   -5.4080 H   0  0  0  1  0  0
   -3.7060   -4.6150   -3.1770 H   0  0  0  1  0  0
   -4.7570   -1.0380   -1.0230 H   0  0  0  1  0  0
   -0.2570   -6.4450   -2.2610 H   0  0  0  1  0  0
    1.6480   -2.7330   -1.1890 H   0  0  0  1  0  0
   -0.2260   -0.7020    1.2650 H   0  0  0  1  0  0
    2.8950    2.0110    2.4770 H   0  0  0  1  0  0
    2.3350   -3.7160    0.9810 H   0  0  0  1  0  0
    2.8290    1.0590    4.7640 H   0  0  0  1  0  0
   -0.5890    3.5310    4.6470 H   0  0  0  1  0  0
   -0.1360    5.1540    0.5600 H   0  0  0  1  0  0
    2.1480   -1.3240   -3.4940 H   0  0  0  1  0  0
   -0.1410    4.1260   -4.7530 H   0  0  0  1  0  0
   -5.9140   -4.1050   -2.4810 H   0  0  0  1  0  0
   -0.1330   -8.1720   -0.6800 H   0  0  0  1  0  0
   -1.0310   -2.1620    2.9140 H   0  0  0  1  0  0
    2.3020   -5.6110    2.3700 H   0  0  0  1  0  0
    1.8370   -0.5090    6.2060 H   0  0  0  1  0  0
    0.3880    7.3840    0.3630 H   0  0  0  1  0  0
    0.1030    6.6140    6.1860 H   0  0  0  1  0  0
   -1.4190    1.1320    2.4130 H   0  0  0  1  0  0
  1 22  1  0
  1 25  1  0
  2 20  1  0
  2 27  1  0
  3 18  1  0
  3 72  1  0
  4 23  1  0
  4 43  1  0
  5 28  1  0
  6 30  1  0
  6 73  1  0
  7 31  1  0
  8 36  1  0
  8 74  1  0
  9 41  1  0
  9 75  1  0
 10 44  1  0
 10 76  1  0
 11 45  1  0
 11 77  1  0
 12 43  1  0
 12 81  1  0
 13 47  1  0
 13 78  1  0
 14 51  1  0
 14 79  1  0
 15 52  1  0
 15 80  1  0
 16 53  2  0
 17 18  1  0
 17 19  1  0
 17 21  1  0
 17 54  1  0
 18 20  1  0
 18 55  1  0
 19 22  2  0
 19 28  1  0
 20 29  1  0
 20 56  1  0
 21 27  2  0
 21 31  1  0
 22 24  1  0
 23 25  1  0
 23 26  1  0
 23 57  1  0
 24 26  1  0
 24 30  2  0
 25 32  1  0
 25 58  1  0
 26 59  1  0
 26 60  1  0
 27 34  1  0
 28 33  2  0
 29 37  2  0
 29 38  1  0
 30 33  1  0
 31 35  2  0
 32 39  2  0
 32 40  1  0
 33 61  1  0
 34 36  2  0
 34 62  1  0
 35 36  1  0
 35 63  1  0
 37 41  1  0
 37 64  1  0
 38 42  2  0
 38 65  1  0
 39 44  1  0
 39 66  1  0
 40 46  2  0
 40 67  1  0
 41 45  2  0
 42 45  1  0
 42 68  1  0
 43 48  2  0
 44 47  2  0
 46 47  1  0
 46 69  1  0
 48 49  1  0
 48 50  1  0
 49 52  2  0
 49 70  1  0
 50 51  2  0
 50 71  1  0
 51 53  1  0
 52 53  1  0
M  CHG  2   5  -1   7  -1
M  END
> <Name>
15593124

> <AbsoluteEnergy>
84.4442

> <ConfNumber>
1

> <Ionization pH>
6.79_DDPPPPPPPPP

> <IonizationIndex>
2

> <NumberOfIonizations>
2

> <NumberOfStereoisomers>
1

> <NumberOfTautomers>
2

> <OBJECTID>
9223375734824960013

> <PUBCHEM_ATOM_DEF_STEREO_COUNT>
5

> <PUBCHEM_ATOM_UDEF_STEREO_COUNT>
0

> <PUBCHEM_BONDANNOTATIONS>
17  54  6
19  22  8
19  28  8
20  29  6
21  27  8
21  31  8
22  24  8
24  30  8
25  32  5
27  34  8
28  33  8
29  37  8
29  38  8
18  3  6
30  33  8
31  35  8
32  39  8
32  40  8
34  36  8
35  36  8
37  41  8
38  42  8
39  44  8
23  4  5
40  46  8
41  45  8
42  45  8
44  47  8
46  47  8
48  49  8
48  50  8
49  52  8
50  51  8
51  53  8
52  53  8

> <PUBCHEM_BOND_DEF_STEREO_COUNT>
0

> <PUBCHEM_BOND_UDEF_STEREO_COUNT>
0

> <PUBCHEM_CACTVS_COMPLEXITY>
1250

> <PUBCHEM_CACTVS_HBOND_ACCEPTOR>
16

> <PUBCHEM_CACTVS_HBOND_DONOR>
12

> <PUBCHEM_CACTVS_ROTATABLE_BOND>
6

> <PUBCHEM_CACTVS_SUBSKEYS>
AAADceB8PgAAAAAAAAAAAAAAAAAAAAAAAAA0aMGDAAAAAACRVAAAGgAACAAADRSgmAIwDoAABgCIAiDSCAACCAAkIAAIiAEGiMgNNzKGNRqCeSGlwBULuYfK7PzOoAADCAAIQABAAAYQABCAAAAAAAAAAA==

> <PUBCHEM_CACTVS_TAUTO_COUNT>
986

> <PUBCHEM_CACTVS_TPSA>
288

> <PUBCHEM_COMPONENT_COUNT>
1

> <PUBCHEM_COMPOUND_CANONICALIZED>
1

> <PUBCHEM_COMPOUND_CID>
15593124

> <PUBCHEM_COORDINATE_TYPE>
1
5
255

> <PUBCHEM_EXACT_MASS>
730.15338487

> <PUBCHEM_HEAVY_ATOM_COUNT>
53

> <PUBCHEM_ISOTOPIC_ATOM_COUNT>
0

> <PUBCHEM_IUPAC_CAS_NAME>
3,4,5-trihydroxybenzoic acid [(2R,3R)-2-(3,4-dihydroxyphenyl)-8-[(2R,3R,4R)-2-(3,4-dihydroxyphenyl)-3,5,7-trihydroxy-3,4-dihydro-2H-1-benzopyran-4-yl]-5,7-dihydroxy-3,4-dihydro-2H-1-benzopyran-3-yl] e
ster

> <PUBCHEM_IUPAC_INCHI>
InChI=1S/C37H30O16/c38-16-9-23(44)29-27(10-16)51-35(14-2-4-19(40)22(43)6-14)33(49)31(29)30-24(45)12-20(41)17-11-28(52-37(50)15-7-25(46)32(48)26(47)8-15)34(53-36(17)30)13-1-3-18(39)21(42)5-13/h1-10,12,
28,31,33-35,38-49H,11H2/t28-,31-,33-,34-,35-/m1/s1

> <PUBCHEM_IUPAC_INCHIKEY>
VLFKNLZNDSEVBZ-BTWXELLASA-N

> <PUBCHEM_IUPAC_NAME>
[(2R,3R)-2-(3,4-dihydroxyphenyl)-8-[(2R,3R,4R)-2-(3,4-dihydroxyphenyl)-3,5,7-trihydroxy-3,4-dihydro-2H-chromen-4-yl]-5,7-dihydroxy-3,4-dihydro-2H-chromen-3-yl] 3,4,5-trihydroxybenzoate

> <PUBCHEM_IUPAC_NAME_MARKUP>
[(2<I>R</I>,3<I>R</I>)-2-(3,4-dihydroxyphenyl)-8-[(2<I>R</I>,3<I>R</I>,4<I>R</I>)-2-(3,4-dihydroxyphenyl)-3,5,7-trihydroxy-3,4-dihydro-2<I>H</I>-chromen-4-yl]-5,7-dihydroxy-3,4-dihydro-2<I>H</I>-chrom
en-3-yl] 3,4,5-trihydroxybenzoate

> <PUBCHEM_IUPAC_OPENEYE_NAME>
[(2R,3R)-2-(3,4-dihydroxyphenyl)-8-[(2R,3R,4R)-2-(3,4-dihydroxyphenyl)-3,5,7-trihydroxy-chroman-4-yl]-5,7-dihydroxy-chroman-3-yl] 3,4,5-trihydroxybenzoate

> <PUBCHEM_IUPAC_SYSTEMATIC_NAME>
[(2R,3R)-2-[3,4-bis(oxidanyl)phenyl]-8-[(2R,3R,4R)-2-[3,4-bis(oxidanyl)phenyl]-3,5,7-tris(oxidanyl)-3,4-dihydro-2H-chromen-4-yl]-5,7-bis(oxidanyl)-3,4-dihydro-2H-chromen-3-yl] 3,4,5-tris(oxidanyl)benz
oate

> <PUBCHEM_IUPAC_TRADITIONAL_NAME>
3,4,5-trihydroxybenzoic acid [(2R,3R)-2-(3,4-dihydroxyphenyl)-8-[(2R,3R,4R)-2-(3,4-dihydroxyphenyl)-3,5,7-trihydroxy-chroman-4-yl]-5,7-dihydroxy-chroman-3-yl] ester

> <PUBCHEM_MOLECULAR_FORMULA>
C37H30O16

> <PUBCHEM_MOLECULAR_WEIGHT>
730.6

> <PUBCHEM_MONOISOTOPIC_WEIGHT>
730.15338487

> <PUBCHEM_OPENEYE_CAN_SMILES>
C1C(C(OC2=C1C(=CC(=C2C3C(C(OC4=CC(=CC(=C34)O)O)C5=CC(=C(C=C5)O)O)O)O)O)C6=CC(=C(C=C6)O)O)OC(=O)C7=CC(=C(C(=C7)O)O)O

> <PUBCHEM_OPENEYE_ISO_SMILES>
C1[C@H]([C@H](OC2=C1C(=CC(=C2[C@@H]3[C@H]([C@H](OC4=CC(=CC(=C34)O)O)C5=CC(=C(C=C5)O)O)O)O)O)C6=CC(=C(C=C6)O)O)OC(=O)C7=CC(=C(C(=C7)O)O)O

> <PUBCHEM_TOTAL_CHARGE>
0

> <PUBCHEM_XLOGP3_AA>
3.5

> <RelativeEnergy>
0

> <StereoisomerIndex>
1

> <TautomerIndex>
2

> <LibDock Warning>
no hit found

> <ErrorText>
LibDock failed

$$$$
69964214
  SciTegic09112317153D

 75 79  0  0  0  0            999 V2000
   -3.1130   -1.2900   -1.3300 O   0  0  0  1  0  0
   -4.2940    0.9760    0.2160 O   0  0  0  1  0  0
   -3.6910    0.1660   -3.0170 O   0  0  0  1  0  0
   -2.0470   -1.1110    2.1200 O   0  0  0  1  0  0
   -2.0650    1.5210    0.7300 O   0  0  0  1  0  0
   -5.2970   -1.7940    0.6900 O   0  0  0  1  0  0
   -1.4810   -2.8100   -3.0890 O   0  0  0  1  0  0
   -0.4230   -1.0660   -4.9280 O   0  0  0  1  0  0
   -2.5900    0.4710   -6.5130 O   0  0  0  1  0  0
   -4.3150    2.5680    2.4240 O   0  0  0  1  0  0
    2.2760    0.3150    2.2340 O   0  0  0  1  0  0
    1.4280    1.6750   -2.3280 O   0  0  0  1  0  0
    3.8880    0.9900   -1.5630 O   0  0  0  1  0  0
    6.9680   -1.5910    6.1350 O   0  0  0  1  0  0
    4.7150   -0.1480    6.7060 O   0  0  0  1  0  0
   -2.5190   -0.6800   -0.1980 C   0  0  2  1  0  0
   -2.9370   -1.4530    1.0740 C   0  0  2  1  0  0
   -4.3770   -1.1060    1.5200 C   0  0  1  1  0  0
   -2.6800   -0.7310   -2.5550 C   0  0  2  1  0  0
   -2.3720   -1.8310   -3.6070 C   0  0  1  1  0  0
   -2.9240    0.8130   -0.1550 C   0  0  1  1  0  0
   -4.6840    0.4140    1.4690 C   0  0  1  1  0  0
   -1.8370   -1.1960   -4.9230 C   0  0  1  1  0  0
   -2.4420    0.2180   -5.1270 C   0  0  2  1  0  0
   -3.8190    0.3350   -4.4300 C   0  0  2  1  0  0
   -4.0380    1.2010    2.6160 C   0  0  0  1  0  0
   -4.5130    1.6820   -4.6440 C   0  0  0  1  0  0
   -0.7800    1.3630    0.4240 C   0  0  0  1  0  0
    0.1720    0.9120    1.4620 C   0  0  0  1  0  0
   -0.3500    1.6120   -0.8300 C   0  0  0  1  0  0
    1.4870    0.7290    1.2170 C   0  0  0  1  0  0
    1.0680    1.4430   -1.1970 C   0  0  0  1  0  0
    2.0120    0.9860   -0.1510 C   0  0  0  1  0  0
    3.3270    0.7900   -0.3720 C   0  0  0  1  0  0
    3.5920    0.1310    1.9730 C   0  0  0  1  0  0
    4.1480    0.3360    0.7570 C   0  0  0  1  0  0
    4.4880   -0.3270    3.0780 C   0  0  0  1  0  0
    4.1750   -0.0160    4.4130 C   0  0  0  1  0  0
    5.6460   -1.0690    2.7850 C   0  0  0  1  0  0
    5.0140   -0.4430    5.4560 C   0  0  0  1  0  0
    6.4870   -1.4960    3.8270 C   0  0  0  1  0  0
    6.1740   -1.1850    5.1620 C   0  0  0  1  0  0
    8.1680   -2.2600    5.7790 C   0  0  0  1  0  0
   -1.4440   -0.7660   -0.3600 H   0  0  0  1  0  0
   -2.8180   -2.5290    0.9380 H   0  0  0  1  0  0
   -4.5700   -1.4850    2.5250 H   0  0  0  1  0  0
   -1.7810   -0.1430   -2.3610 H   0  0  0  1  0  0
   -3.2970   -2.3630   -3.8320 H   0  0  0  1  0  0
   -2.8020    1.2690   -1.1400 H   0  0  0  1  0  0
   -5.7610    0.5720    1.5490 H   0  0  0  1  0  0
   -2.0950   -1.8630   -5.7470 H   0  0  0  1  0  0
   -1.7870    0.9950   -4.7290 H   0  0  0  1  0  0
   -4.4690   -0.4640   -4.7880 H   0  0  0  1  0  0
   -2.9570    1.0680    2.6120 H   0  0  0  1  0  0
   -4.4620    0.9010    3.5750 H   0  0  0  1  0  0
   -5.4390    1.7590   -4.0740 H   0  0  0  1  0  0
   -4.7560    1.8280   -5.6970 H   0  0  0  1  0  0
   -3.8640    2.5040   -4.3370 H   0  0  0  1  0  0
   -0.2050    0.7230    2.4570 H   0  0  0  1  0  0
   -1.0550    1.9410   -1.5790 H   0  0  0  1  0  0
    5.2060    0.1740    0.5910 H   0  0  0  1  0  0
    3.2870    0.5550    4.6440 H   0  0  0  1  0  0
    5.8960   -1.3120    1.7620 H   0  0  0  1  0  0
    7.3750   -2.0670    3.6000 H   0  0  0  1  0  0
    8.7620   -2.3980    6.6830 H   0  0  0  1  0  0
    7.9060   -3.1650    5.2320 H   0  0  0  1  0  0
    8.7320   -1.6140    5.1040 H   0  0  0  1  0  0
   -2.2260   -1.7150    2.8580 H   0  0  0  1  0  0
   -6.1760   -1.6940    1.0900 H   0  0  0  1  0  0
   -1.9950   -3.3750   -2.4880 H   0  0  0  1  0  0
   -0.1600   -0.8430   -5.8350 H   0  0  0  1  0  0
   -2.6420    1.4340   -6.6250 H   0  0  0  1  0  0
   -3.9010    3.0500    3.1570 H   0  0  0  1  0  0
    5.2980   -0.4460    7.4140 H   0  0  0  1  0  0
    4.8370    0.8350   -1.6710 H   0  0  0  1  0  0
  1 16  1  0
  1 19  1  0
  2 21  1  0
  2 22  1  0
  3 19  1  0
  3 25  1  0
  4 17  1  0
  4 68  1  0
  5 21  1  0
  5 28  1  0
  6 18  1  0
  6 69  1  0
  7 20  1  0
  7 70  1  0
  8 23  1  0
  8 71  1  0
  9 24  1  0
  9 72  1  0
 10 26  1  0
 10 73  1  0
 11 31  1  0
 11 35  1  0
 12 32  2  0
 13 34  1  0
 13 75  1  0
 14 42  1  0
 14 43  1  0
 15 40  1  0
 15 74  1  0
 16 17  1  0
 16 21  1  0
 16 44  1  0
 17 18  1  0
 17 45  1  0
 18 22  1  0
 18 46  1  0
 19 20  1  0
 19 47  1  0
 20 23  1  0
 20 48  1  0
 21 49  1  0
 22 26  1  0
 22 50  1  0
 23 24  1  0
 23 51  1  0
 24 25  1  0
 24 52  1  0
 25 27  1  0
 25 53  1  0
 26 54  1  0
 26 55  1  0
 27 56  1  0
 27 57  1  0
 27 58  1  0
 28 29  1  0
 28 30  2  0
 29 31  2  0
 29 59  1  0
 30 32  1  0
 30 60  1  0
 31 33  1  0
 32 33  1  0
 33 34  2  0
 34 36  1  0
 35 36  2  0
 35 37  1  0
 36 61  1  0
 37 38  2  0
 37 39  1  0
 38 40  1  0
 38 62  1  0
 39 41  2  0
 39 63  1  0
 40 42  2  0
 41 42  1  0
 41 64  1  0
 43 65  1  0
 43 66  1  0
 43 67  1  0
M  END
> <Name>
69964214

> <AbsoluteEnergy>
64.5602

> <ConfNumber>
1

> <Ionization pH>
7.5

> <IonizationIndex>
1

> <NumberOfIonizations>
1

> <NumberOfStereoisomers>
1

> <NumberOfTautomers>
2

> <OBJECTID>
9223375812134371341

> <PUBCHEM_ATOM_DEF_STEREO_COUNT>
10

> <PUBCHEM_ATOM_UDEF_STEREO_COUNT>
0

> <PUBCHEM_BONDANNOTATIONS>
16  1  6
19  1  6
11  31  8
11  35  8
22  26  5
25  27  5
28  29  8
28  30  8
29  31  8
30  32  8
31  33  8
32  33  8
33  34  8
34  36  8
35  36  8
37  38  8
37  39  8
38  40  8
39  41  8
17  4  5
40  42  8
41  42  8
21  5  5
18  6  6
20  7  5
23  8  5
24  9  6

> <PUBCHEM_BOND_DEF_STEREO_COUNT>
0

> <PUBCHEM_BOND_UDEF_STEREO_COUNT>
0

> <PUBCHEM_CACTVS_COMPLEXITY>
995

> <PUBCHEM_CACTVS_HBOND_ACCEPTOR>
15

> <PUBCHEM_CACTVS_HBOND_DONOR>
8

> <PUBCHEM_CACTVS_ROTATABLE_BOND>
7

> <PUBCHEM_CACTVS_SUBSKEYS>
AAADcfB4PAAAAAAAAAAAAAAAAAAAAAAAAAA0aIECAAAAAACBQAAAGgAACAAADBSwmAMyDoAABgCIAqBSAAACCAAkIAAIiAEGiMgdNzaGNRqieWOl4BUPuQfI7LzOIAABCAAIQABAAAIQABCAAAAAAAAAAA==

> <PUBCHEM_CACTVS_TAUTO_COUNT>
-1

> <PUBCHEM_CACTVS_TPSA>
234

> <PUBCHEM_COMPONENT_COUNT>
1

> <PUBCHEM_COMPOUND_CANONICALIZED>
1

> <PUBCHEM_COMPOUND_CID>
69964214

> <PUBCHEM_COORDINATE_TYPE>
1
5
255

> <PUBCHEM_EXACT_MASS>
608.17412031

> <PUBCHEM_HEAVY_ATOM_COUNT>
43

> <PUBCHEM_ISOTOPIC_ATOM_COUNT>
0

> <PUBCHEM_IUPAC_CAS_NAME>
7-[[(2S,3R,4S,5S,6R)-4,5-dihydroxy-6-(hydroxymethyl)-3-[[(2S,3R,4R,5R,6S)-3,4,5-trihydroxy-6-methyl-2-oxanyl]oxy]-2-oxanyl]oxy]-5-hydroxy-2-(3-hydroxy-4-methoxyphenyl)-1-benzopyran-4-one

> <PUBCHEM_IUPAC_INCHI>
InChI=1S/C28H32O15/c1-10-21(33)23(35)25(37)27(39-10)43-26-24(36)22(34)19(9-29)42-28(26)40-12-6-14(31)20-15(32)8-17(41-18(20)7-12)11-3-4-16(38-2)13(30)5-11/h3-8,10,19,21-31,33-37H,9H2,1-2H3/t10-,19+,21
-,22+,23+,24-,25+,26+,27-,28+/m0/s1

> <PUBCHEM_IUPAC_INCHIKEY>
VCCNKWWXYVWTLT-CYZBKYQRSA-N

> <PUBCHEM_IUPAC_NAME>
7-[(2S,3R,4S,5S,6R)-4,5-dihydroxy-6-(hydroxymethyl)-3-[(2S,3R,4R,5R,6S)-3,4,5-trihydroxy-6-methyloxan-2-yl]oxyoxan-2-yl]oxy-5-hydroxy-2-(3-hydroxy-4-methoxyphenyl)chromen-4-one

> <PUBCHEM_IUPAC_NAME_MARKUP>
7-[(2<I>S</I>,3<I>R</I>,4<I>S</I>,5<I>S</I>,6<I>R</I>)-4,5-dihydroxy-6-(hydroxymethyl)-3-[(2<I>S</I>,3<I>R</I>,4<I>R</I>,5<I>R</I>,6<I>S</I>)-3,4,5-trihydroxy-6-methyloxan-2-yl]oxyoxan-2-yl]oxy-5-hydr
oxy-2-(3-hydroxy-4-methoxyphenyl)chromen-4-one

> <PUBCHEM_IUPAC_OPENEYE_NAME>
7-[(2S,3R,4S,5S,6R)-4,5-dihydroxy-6-(hydroxymethyl)-3-[(2S,3R,4R,5R,6S)-3,4,5-trihydroxy-6-methyl-tetrahydropyran-2-yl]oxy-tetrahydropyran-2-yl]oxy-5-hydroxy-2-(3-hydroxy-4-methoxy-phenyl)chromen-4-on
e

> <PUBCHEM_IUPAC_SYSTEMATIC_NAME>
7-[(2S,3R,4S,5S,6R)-6-(hydroxymethyl)-3-[(2S,3R,4R,5R,6S)-6-methyl-3,4,5-tris(oxidanyl)oxan-2-yl]oxy-4,5-bis(oxidanyl)oxan-2-yl]oxy-2-(4-methoxy-3-oxidanyl-phenyl)-5-oxidanyl-chromen-4-one

> <PUBCHEM_IUPAC_TRADITIONAL_NAME>
7-[(2S,3R,4S,5S,6R)-4,5-dihydroxy-6-methylol-3-[(2S,3R,4R,5R,6S)-3,4,5-trihydroxy-6-methyl-tetrahydropyran-2-yl]oxy-tetrahydropyran-2-yl]oxy-5-hydroxy-2-(3-hydroxy-4-methoxy-phenyl)chromone

> <PUBCHEM_MOLECULAR_FORMULA>
C28H32O15

> <PUBCHEM_MOLECULAR_WEIGHT>
608.5

> <PUBCHEM_MONOISOTOPIC_WEIGHT>
608.17412031

> <PUBCHEM_OPENEYE_CAN_SMILES>
CC1C(C(C(C(O1)OC2C(C(C(OC2OC3=CC(=C4C(=C3)OC(=CC4=O)C5=CC(=C(C=C5)OC)O)O)CO)O)O)O)O)O

> <PUBCHEM_OPENEYE_ISO_SMILES>
C[C@H]1[C@@H]([C@H]([C@H]([C@@H](O1)O[C@@H]2[C@H]([C@@H]([C@H](O[C@H]2OC3=CC(=C4C(=C3)OC(=CC4=O)C5=CC(=C(C=C5)OC)O)O)CO)O)O)O)O)O

> <PUBCHEM_TOTAL_CHARGE>
0

> <PUBCHEM_XLOGP3_AA>
-0.3

> <RelativeEnergy>
0

> <StereoisomerIndex>
1

> <TautomerIndex>
2

> <LibDock Warning>
no hit found

> <ErrorText>
LibDock failed

$$$$
72193635
  SciTegic09112317153D

 82 88  0  0  0  0            999 V2000
    0.1220    0.4480    0.3150 O   0  0  0  1  0  0
   -2.8530   -3.9770   -1.4280 O   0  0  0  1  0  0
    0.5240   -2.5800   -1.1730 O   0  0  0  1  0  0
    2.7760    1.4090   -0.2750 O   0  0  0  1  0  0
   -2.5540   -0.7290   -3.4620 O   0  0  0  1  0  0
   -0.0980    3.3450   -3.5300 O   0  0  0  1  0  0
   -3.5630    0.6850   -0.2320 O   0  5  0  1  0  0
   -7.2460   -2.2060   -1.1370 O   0  0  0  1  0  0
   -2.3880   -6.7560    2.8210 O   0  0  0  1  0  0
   -3.4030    3.8460    1.3300 O   0  0  0  1  0  0
   -0.9590   -5.0660    4.4300 O   0  0  0  1  0  0
    3.7350    0.9400    1.6940 O   0  0  0  1  0  0
   -2.9110    4.5640    3.9250 O   0  0  0  1  0  0
    8.6640    1.6940    0.8250 O   0  0  0  1  0  0
    6.4690    3.1760   -3.0880 O   0  0  0  1  0  0
    8.7710    2.7960   -1.6690 O   0  0  0  1  0  0
   -1.6130   -1.4150   -0.8740 C   0  0  1  1  0  0
   -0.8560   -2.6210   -1.4990 C   0  0  2  1  0  0
   -1.2140   -0.1620   -1.5630 C   0  0  0  1  0  0
   -1.4690   -3.9690   -1.0670 C   0  0  1  1  0  0
   -3.1040   -1.6120   -0.8960 C   0  0  0  1  0  0
   -0.3320    0.7470   -0.9230 C   0  0  0  1  0  0
    1.7550    2.2580    0.2360 C   0  0  2  1  0  0
    0.0580    1.9420   -1.5950 C   0  0  0  1  0  0
    0.8120    1.4180    1.1170 C   0  0  1  1  0  0
    0.9930    2.8940   -0.9390 C   0  0  0  1  0  0
   -3.6400   -2.9000   -1.2100 C   0  0  0  1  0  0
   -1.7160    0.1240   -2.8550 C   0  0  0  1  0  0
   -1.3330   -4.2610    0.3950 C   0  0  0  1  0  0
   -0.4520    2.2210   -2.8890 C   0  0  0  1  0  0
   -4.0130   -0.5480   -0.6030 C   0  0  0  1  0  0
   -0.1760    2.2530    1.8610 C   0  0  0  1  0  0
   -1.3340    1.3140   -3.5150 C   0  0  0  1  0  0
   -5.0390   -3.0860   -1.2990 C   0  0  0  1  0  0
   -5.4100   -0.7510   -0.6900 C   0  0  0  1  0  0
   -5.9220   -2.0170   -1.0470 C   0  0  0  1  0  0
   -1.9410   -5.4040    0.9420 C   0  0  0  1  0  0
   -0.5980   -3.3930    1.2210 C   0  0  0  1  0  0
   -1.3590    2.6710    1.2300 C   0  0  0  1  0  0
    0.0750    2.6200    3.1940 C   0  0  0  1  0  0
   -1.8160   -5.6820    2.3140 C   0  0  0  1  0  0
   -0.4720   -3.6700    2.5910 C   0  0  0  1  0  0
    3.8160    1.3150    0.5480 C   0  0  0  1  0  0
   -2.2940    3.4580    1.9270 C   0  0  0  1  0  0
   -1.0800   -4.8120    3.1420 C   0  0  0  1  0  0
   -0.8560    3.4070    3.8920 C   0  0  0  1  0  0
   -2.0410    3.8260    3.2640 C   0  0  0  1  0  0
    5.1320    1.7080   -0.0420 C   0  0  0  1  0  0
    5.1870    2.2750   -1.3270 C   0  0  0  1  0  0
    6.3180    1.5120    0.6880 C   0  0  0  1  0  0
    7.5560    1.8810    0.1370 C   0  0  0  1  0  0
    6.4230    2.6460   -1.8830 C   0  0  0  1  0  0
    7.6090    2.4480   -1.1500 C   0  0  0  1  0  0
   -1.3310   -1.3180    0.1750 H   0  0  0  1  0  0
   -0.9170   -2.5750   -2.5890 H   0  0  0  1  0  0
   -0.9920   -4.7860   -1.6090 H   0  0  0  1  0  0
    2.2510    3.0320    0.8250 H   0  0  0  1  0  0
    1.3910    0.8710    1.8620 H   0  0  0  1  0  0
    1.7080    3.2860   -1.6660 H   0  0  0  1  0  0
    0.4160    3.7480   -0.5850 H   0  0  0  1  0  0
   -1.7200    1.5310   -4.5010 H   0  0  0  1  0  0
   -5.4340   -4.0570   -1.5600 H   0  0  0  1  0  0
   -6.0900    0.0610   -0.4870 H   0  0  0  1  0  0
   -2.5060   -6.0730    0.3100 H   0  0  0  1  0  0
   -0.1280   -2.5140    0.8050 H   0  0  0  1  0  0
   -1.5570    2.3880    0.2070 H   0  0  0  1  0  0
    0.9830    2.3020    3.6860 H   0  0  0  1  0  0
    0.0930   -3.0030    3.2250 H   0  0  0  1  0  0
   -0.6610    3.6880    4.9160 H   0  0  0  1  0  0
    4.2810    2.4290   -1.8940 H   0  0  0  1  0  0
    6.2830    1.0770    1.6770 H   0  0  0  1  0  0
    0.9410   -1.9450   -1.7770 H   0  0  0  1  0  0
   -2.8860   -0.5150   -4.3440 H   0  0  0  1  0  0
   -0.4560    3.5200   -4.4100 H   0  0  0  1  0  0
   -7.5850   -3.0770   -1.3750 H   0  0  0  1  0  0
   -2.8900   -7.3420    2.2410 H   0  0  0  1  0  0
   -3.5620    3.5850    0.4130 H   0  0  0  1  0  0
   -1.3800   -5.8530    4.8000 H   0  0  0  1  0  0
   -3.7220    4.8470    3.4830 H   0  0  0  1  0  0
    9.4660    2.1690    0.5700 H   0  0  0  1  0  0
    7.3240    3.4290   -3.4630 H   0  0  0  1  0  0
    9.5840    2.4350   -1.2940 H   0  0  0  1  0  0
  1 22  1  0
  1 25  1  0
  2 20  1  0
  2 27  1  0
  3 18  1  0
  3 72  1  0
  4 23  1  0
  4 43  1  0
  5 28  1  0
  5 73  1  0
  6 30  1  0
  6 74  1  0
  7 31  1  0
  8 36  1  0
  8 75  1  0
  9 41  1  0
  9 76  1  0
 10 44  1  0
 10 77  1  0
 11 45  1  0
 11 78  1  0
 12 43  2  0
 13 47  1  0
 13 79  1  0
 14 51  1  0
 14 80  1  0
 15 52  1  0
 15 81  1  0
 16 53  1  0
 16 82  1  0
 17 18  1  0
 17 19  1  0
 17 21  1  0
 17 54  1  0
 18 20  1  0
 18 55  1  0
 19 22  2  0
 19 28  1  0
 20 29  1  0
 20 56  1  0
 21 27  2  0
 21 31  1  0
 22 24  1  0
 23 25  1  0
 23 26  1  0
 23 57  1  0
 24 26  1  0
 24 30  2  0
 25 32  1  0
 25 58  1  0
 26 59  1  0
 26 60  1  0
 27 34  1  0
 28 33  2  0
 29 37  2  0
 29 38  1  0
 30 33  1  0
 31 35  2  0
 32 39  2  0
 32 40  1  0
 33 61  1  0
 34 36  2  0
 34 62  1  0
 35 36  1  0
 35 63  1  0
 37 41  1  0
 37 64  1  0
 38 42  2  0
 38 65  1  0
 39 44  1  0
 39 66  1  0
 40 46  2  0
 40 67  1  0
 41 45  2  0
 42 45  1  0
 42 68  1  0
 43 48  1  0
 44 47  2  0
 46 47  1  0
 46 69  1  0
 48 49  2  0
 48 50  1  0
 49 52  1  0
 49 70  1  0
 50 51  2  0
 50 71  1  0
 51 53  1  0
 52 53  2  0
M  CHG  1   7  -1
M  END
> <Name>
72193635

> <AbsoluteEnergy>
93.6946

> <ConfNumber>
1

> <Ionization pH>
6.79_DPPPPPPPPPP

> <IonizationIndex>
1

> <NumberOfIonizations>
2

> <NumberOfStereoisomers>
1

> <NumberOfTautomers>
2

> <OBJECTID>
9223375816429338637

> <PUBCHEM_ATOM_DEF_STEREO_COUNT>
5

> <PUBCHEM_ATOM_UDEF_STEREO_COUNT>
0

> <PUBCHEM_BONDANNOTATIONS>
17  54  6
19  22  8
19  28  8
20  29  6
21  27  8
21  31  8
22  24  8
24  30  8
25  32  5
27  34  8
28  33  8
29  37  8
29  38  8
18  3  6
30  33  8
31  35  8
32  39  8
32  40  8
34  36  8
35  36  8
37  41  8
38  42  8
39  44  8
23  4  6
40  46  8
41  45  8
42  45  8
44  47  8
46  47  8
48  49  8
48  50  8
49  52  8
50  51  8
51  53  8
52  53  8

> <PUBCHEM_BOND_DEF_STEREO_COUNT>
0

> <PUBCHEM_BOND_UDEF_STEREO_COUNT>
0

> <PUBCHEM_CACTVS_COMPLEXITY>
1250

> <PUBCHEM_CACTVS_HBOND_ACCEPTOR>
16

> <PUBCHEM_CACTVS_HBOND_DONOR>
12

> <PUBCHEM_CACTVS_ROTATABLE_BOND>
6

> <PUBCHEM_CACTVS_SUBSKEYS>
AAADceB8PgAAAAAAAAAAAAAAAAAAAAAAAAA0aMGDAAAAAACRVAAAGgAACAAADRSgmAIwDoAABgCIAiDSCAACCAAkIAAIiAEGiMgNNzKGNRqCeSGlwBULuYfK7PzOoAADCAAIQABAAAYQABCAAAAAAAAAAA==

> <PUBCHEM_CACTVS_TAUTO_COUNT>
-1

> <PUBCHEM_CACTVS_TPSA>
288

> <PUBCHEM_COMPONENT_COUNT>
1

> <PUBCHEM_COMPOUND_CANONICALIZED>
1

> <PUBCHEM_COMPOUND_CID>
72193635

> <PUBCHEM_COORDINATE_TYPE>
1
5
255

> <PUBCHEM_EXACT_MASS>
730.15338487

> <PUBCHEM_HEAVY_ATOM_COUNT>
53

> <PUBCHEM_ISOTOPIC_ATOM_COUNT>
0

> <PUBCHEM_IUPAC_CAS_NAME>
3,4,5-trihydroxybenzoic acid [(2R,3S)-2-(3,4-dihydroxyphenyl)-8-[(2R,3R,4R)-2-(3,4-dihydroxyphenyl)-3,5,7-trihydroxy-3,4-dihydro-2H-1-benzopyran-4-yl]-5,7-dihydroxy-3,4-dihydro-2H-1-benzopyran-3-yl] e
ster

> <PUBCHEM_IUPAC_INCHI>
InChI=1S/C37H30O16/c38-16-9-23(44)29-27(10-16)51-35(14-2-4-19(40)22(43)6-14)33(49)31(29)30-24(45)12-20(41)17-11-28(52-37(50)15-7-25(46)32(48)26(47)8-15)34(53-36(17)30)13-1-3-18(39)21(42)5-13/h1-10,12,
28,31,33-35,38-49H,11H2/t28-,31+,33+,34+,35+/m0/s1

> <PUBCHEM_IUPAC_INCHIKEY>
VLFKNLZNDSEVBZ-XOKZLUOPSA-N

> <PUBCHEM_IUPAC_NAME>
[(2R,3S)-2-(3,4-dihydroxyphenyl)-8-[(2R,3R,4R)-2-(3,4-dihydroxyphenyl)-3,5,7-trihydroxy-3,4-dihydro-2H-chromen-4-yl]-5,7-dihydroxy-3,4-dihydro-2H-chromen-3-yl] 3,4,5-trihydroxybenzoate

> <PUBCHEM_IUPAC_NAME_MARKUP>
[(2<I>R</I>,3<I>S</I>)-2-(3,4-dihydroxyphenyl)-8-[(2<I>R</I>,3<I>R</I>,4<I>R</I>)-2-(3,4-dihydroxyphenyl)-3,5,7-trihydroxy-3,4-dihydro-2<I>H</I>-chromen-4-yl]-5,7-dihydroxy-3,4-dihydro-2<I>H</I>-chrom
en-3-yl] 3,4,5-trihydroxybenzoate

> <PUBCHEM_IUPAC_OPENEYE_NAME>
[(2R,3S)-2-(3,4-dihydroxyphenyl)-8-[(2R,3R,4R)-2-(3,4-dihydroxyphenyl)-3,5,7-trihydroxy-chroman-4-yl]-5,7-dihydroxy-chroman-3-yl] 3,4,5-trihydroxybenzoate

> <PUBCHEM_IUPAC_SYSTEMATIC_NAME>
[(2R,3S)-2-[3,4-bis(oxidanyl)phenyl]-8-[(2R,3R,4R)-2-[3,4-bis(oxidanyl)phenyl]-3,5,7-tris(oxidanyl)-3,4-dihydro-2H-chromen-4-yl]-5,7-bis(oxidanyl)-3,4-dihydro-2H-chromen-3-yl] 3,4,5-tris(oxidanyl)benz
oate

> <PUBCHEM_IUPAC_TRADITIONAL_NAME>
3,4,5-trihydroxybenzoic acid [(2R,3S)-2-(3,4-dihydroxyphenyl)-8-[(2R,3R,4R)-2-(3,4-dihydroxyphenyl)-3,5,7-trihydroxy-chroman-4-yl]-5,7-dihydroxy-chroman-3-yl] ester

> <PUBCHEM_MOLECULAR_FORMULA>
C37H30O16

> <PUBCHEM_MOLECULAR_WEIGHT>
730.6

> <PUBCHEM_MONOISOTOPIC_WEIGHT>
730.15338487

> <PUBCHEM_OPENEYE_CAN_SMILES>
C1C(C(OC2=C1C(=CC(=C2C3C(C(OC4=CC(=CC(=C34)O)O)C5=CC(=C(C=C5)O)O)O)O)O)C6=CC(=C(C=C6)O)O)OC(=O)C7=CC(=C(C(=C7)O)O)O

> <PUBCHEM_OPENEYE_ISO_SMILES>
C1[C@@H]([C@H](OC2=C1C(=CC(=C2[C@@H]3[C@H]([C@H](OC4=CC(=CC(=C34)O)O)C5=CC(=C(C=C5)O)O)O)O)O)C6=CC(=C(C=C6)O)O)OC(=O)C7=CC(=C(C(=C7)O)O)O

> <PUBCHEM_TOTAL_CHARGE>
0

> <PUBCHEM_XLOGP3_AA>
3.5

> <RelativeEnergy>
0

> <StereoisomerIndex>
1

> <TautomerIndex>
1

> <LibDock Warning>
no hit found

> <ErrorText>
LibDock failed

$$$$
72193635
  SciTegic09112317153D

 82 88  0  0  0  0            999 V2000
    0.1750    0.1170    0.2530 O   0  0  0  1  0  0
   -2.1580   -3.6930   -3.1670 O   0  0  0  1  0  0
    1.0630   -2.5080   -1.8820 O   0  0  0  1  0  0
    1.7130    2.8080    2.2310 O   0  0  0  1  0  0
   -1.3810   -0.1100   -4.2600 O   0  0  0  1  0  0
    0.7980    3.8390   -2.7430 O   0  0  0  1  0  0
   -3.2000    0.5400   -1.0070 O   0  5  0  1  0  0
   -6.5540   -1.9130   -3.3410 O   0  0  0  1  0  0
   -2.5290   -7.4540    0.2490 O   0  0  0  1  0  0
   -1.9530   -1.9460    4.0800 O   0  0  0  1  0  0
   -1.4840   -6.2770    2.4870 O   0  0  0  1  0  0
    3.6400    1.7380    1.5910 O   0  0  0  1  0  0
   -0.2580   -1.6580    6.2100 O   0  0  0  1  0  0
    2.8340    7.6320    2.0850 O   0  0  0  1  0  0
    6.7000    5.3640    0.1720 O   0  0  0  1  0  0
    5.3250    7.6430    0.8990 O   0  0  0  1  0  0
   -1.1150   -1.3910   -1.7430 C   0  0  1  1  0  0
   -0.2190   -2.4240   -2.4830 C   0  0  2  1  0  0
   -0.6100   -0.0190   -1.9970 C   0  0  0  1  0  0
   -0.8770   -3.8170   -2.5390 C   0  0  1  1  0  0
   -2.5620   -1.5290   -2.1180 C   0  0  0  1  0  0
    0.0350    0.7020   -0.9600 C   0  0  0  1  0  0
    0.8420    2.2230    1.2710 C   0  0  2  1  0  0
    0.5110    2.0230   -1.2070 C   0  0  0  1  0  0
    1.0090    0.6930    1.2650 C   0  0  1  1  0  0
    1.1730    2.7890   -0.1190 C   0  0  0  1  0  0
   -2.9960   -2.6800   -2.8490 C   0  0  0  1  0  0
   -0.7720    0.5690   -3.2760 C   0  0  0  1  0  0
   -1.0390   -4.4700   -1.2050 C   0  0  0  1  0  0
    0.3470    2.6010   -2.4920 C   0  0  0  1  0  0
   -3.5350   -0.5450   -1.7580 C   0  0  0  1  0  0
    0.6730    0.0700    2.5730 C   0  0  0  1  0  0
   -0.2930    1.8730   -3.5220 C   0  0  0  1  0  0
   -4.3420   -2.7950   -3.2660 C   0  0  0  1  0  0
   -4.8800   -0.6770   -2.1790 C   0  0  0  1  0  0
   -5.2820   -1.7950   -2.9380 C   0  0  0  1  0  0
   -1.7270   -5.6920   -1.0980 C   0  0  0  1  0  0
   -0.5010   -3.8660   -0.0540 C   0  0  0  1  0  0
   -0.5140   -0.6660    2.7170 C   0  0  0  1  0  0
    1.5440    0.2170    3.6680 C   0  0  0  1  0  0
   -1.8830   -6.3100    0.1570 C   0  0  0  1  0  0
   -0.6550   -4.4840    1.1990 C   0  0  0  1  0  0
    2.9710    2.8690    1.8030 C   0  0  0  1  0  0
   -0.8370   -1.2560    3.9530 C   0  0  0  1  0  0
   -1.3450   -5.7040    1.3080 C   0  0  0  1  0  0
    1.2240   -0.3730    4.9020 C   0  0  0  1  0  0
    0.0340   -1.1090    5.0480 C   0  0  0  1  0  0
    3.5620    4.0570    1.5830 C   0  0  0  1  0  0
    4.8980    4.1320    0.9610 C   0  0  0  1  0  0
    2.8840    5.3140    1.9620 C   0  0  0  1  0  0
    3.4650    6.5110    1.7380 C   0  0  0  1  0  0
    5.4940    5.3200    0.7320 C   0  0  0  1  0  0
    4.8000    6.5720    1.1070 C   0  0  0  1  0  0
   -1.0550   -1.5700   -0.6690 H   0  0  0  1  0  0
   -0.0560   -2.1030   -3.5150 H   0  0  0  1  0  0
   -0.2830   -4.4880   -3.1610 H   0  0  0  1  0  0
   -0.1810    2.4920    1.5440 H   0  0  0  1  0  0
    2.0440    0.4420    1.0240 H   0  0  0  1  0  0
    0.8830    3.8410   -0.1610 H   0  0  0  1  0  0
    2.2500    2.7500   -0.2870 H   0  0  0  1  0  0
   -0.4170    2.3170   -4.4980 H   0  0  0  1  0  0
   -4.6540   -3.6560   -3.8390 H   0  0  0  1  0  0
   -5.6070    0.0790   -1.9190 H   0  0  0  1  0  0
   -2.1410   -6.1600   -1.9780 H   0  0  0  1  0  0
    0.0300   -2.9280   -0.1300 H   0  0  0  1  0  0
   -1.1860   -0.7820    1.8790 H   0  0  0  1  0  0
    2.4590    0.7810    3.5630 H   0  0  0  1  0  0
   -0.2410   -4.0160    2.0810 H   0  0  0  1  0  0
    1.8940   -0.2570    5.7420 H   0  0  0  1  0  0
    5.4130    3.2210    0.6830 H   0  0  0  1  0  0
    1.9070    5.2800    2.4240 H   0  0  0  1  0  0
    1.5230   -1.6750   -2.0700 H   0  0  0  1  0  0
   -1.4840    0.3050   -5.1260 H   0  0  0  1  0  0
    0.6790    4.2180   -3.6250 H   0  0  0  1  0  0
   -6.8160   -2.6880   -3.8560 H   0  0  0  1  0  0
   -2.8940   -7.8590   -0.5490 H   0  0  0  1  0  0
   -2.5420   -2.0380    3.3210 H   0  0  0  1  0  0
   -1.9590   -7.1150    2.5520 H   0  0  0  1  0  0
    0.3490   -1.5480    6.9520 H   0  0  0  1  0  0
    3.2610    8.4830    1.9220 H   0  0  0  1  0  0
    7.1170    6.2200    0.0120 H   0  0  0  1  0  0
    4.6030    1.7370    1.6640 H   0  0  0  1  0  0
  1 22  1  0
  1 25  1  0
  2 20  1  0
  2 27  1  0
  3 18  1  0
  3 72  1  0
  4 23  1  0
  4 43  1  0
  5 28  1  0
  5 73  1  0
  6 30  1  0
  6 74  1  0
  7 31  1  0
  8 36  1  0
  8 75  1  0
  9 41  1  0
  9 76  1  0
 10 44  1  0
 10 77  1  0
 11 45  1  0
 11 78  1  0
 12 43  1  0
 12 82  1  0
 13 47  1  0
 13 79  1  0
 14 51  1  0
 14 80  1  0
 15 52  1  0
 15 81  1  0
 16 53  2  0
 17 18  1  0
 17 19  1  0
 17 21  1  0
 17 54  1  0
 18 20  1  0
 18 55  1  0
 19 22  2  0
 19 28  1  0
 20 29  1  0
 20 56  1  0
 21 27  2  0
 21 31  1  0
 22 24  1  0
 23 25  1  0
 23 26  1  0
 23 57  1  0
 24 26  1  0
 24 30  2  0
 25 32  1  0
 25 58  1  0
 26 59  1  0
 26 60  1  0
 27 34  1  0
 28 33  2  0
 29 37  2  0
 29 38  1  0
 30 33  1  0
 31 35  2  0
 32 39  2  0
 32 40  1  0
 33 61  1  0
 34 36  2  0
 34 62  1  0
 35 36  1  0
 35 63  1  0
 37 41  1  0
 37 64  1  0
 38 42  2  0
 38 65  1  0
 39 44  1  0
 39 66  1  0
 40 46  2  0
 40 67  1  0
 41 45  2  0
 42 45  1  0
 42 68  1  0
 43 48  2  0
 44 47  2  0
 46 47  1  0
 46 69  1  0
 48 49  1  0
 48 50  1  0
 49 52  2  0
 49 70  1  0
 50 51  2  0
 50 71  1  0
 51 53  1  0
 52 53  1  0
M  CHG  1   7  -1
M  END
> <Name>
72193635

> <AbsoluteEnergy>
86.1378

> <ConfNumber>
1

> <Ionization pH>
6.79_DPPPPPPPPPP

> <IonizationIndex>
1

> <NumberOfIonizations>
2

> <NumberOfStereoisomers>
1

> <NumberOfTautomers>
2

> <OBJECTID>
9223375820724305933

> <PUBCHEM_ATOM_DEF_STEREO_COUNT>
5

> <PUBCHEM_ATOM_UDEF_STEREO_COUNT>
0

> <PUBCHEM_BONDANNOTATIONS>
17  54  6
19  22  8
19  28  8
20  29  6
21  27  8
21  31  8
22  24  8
24  30  8
25  32  5
27  34  8
28  33  8
29  37  8
29  38  8
18  3  6
30  33  8
31  35  8
32  39  8
32  40  8
34  36  8
35  36  8
37  41  8
38  42  8
39  44  8
23  4  6
40  46  8
41  45  8
42  45  8
44  47  8
46  47  8
48  49  8
48  50  8
49  52  8
50  51  8
51  53  8
52  53  8

> <PUBCHEM_BOND_DEF_STEREO_COUNT>
0

> <PUBCHEM_BOND_UDEF_STEREO_COUNT>
0

> <PUBCHEM_CACTVS_COMPLEXITY>
1250

> <PUBCHEM_CACTVS_HBOND_ACCEPTOR>
16

> <PUBCHEM_CACTVS_HBOND_DONOR>
12

> <PUBCHEM_CACTVS_ROTATABLE_BOND>
6

> <PUBCHEM_CACTVS_SUBSKEYS>
AAADceB8PgAAAAAAAAAAAAAAAAAAAAAAAAA0aMGDAAAAAACRVAAAGgAACAAADRSgmAIwDoAABgCIAiDSCAACCAAkIAAIiAEGiMgNNzKGNRqCeSGlwBULuYfK7PzOoAADCAAIQABAAAYQABCAAAAAAAAAAA==

> <PUBCHEM_CACTVS_TAUTO_COUNT>
-1

> <PUBCHEM_CACTVS_TPSA>
288

> <PUBCHEM_COMPONENT_COUNT>
1

> <PUBCHEM_COMPOUND_CANONICALIZED>
1

> <PUBCHEM_COMPOUND_CID>
72193635

> <PUBCHEM_COORDINATE_TYPE>
1
5
255

> <PUBCHEM_EXACT_MASS>
730.15338487

> <PUBCHEM_HEAVY_ATOM_COUNT>
53

> <PUBCHEM_ISOTOPIC_ATOM_COUNT>
0

> <PUBCHEM_IUPAC_CAS_NAME>
3,4,5-trihydroxybenzoic acid [(2R,3S)-2-(3,4-dihydroxyphenyl)-8-[(2R,3R,4R)-2-(3,4-dihydroxyphenyl)-3,5,7-trihydroxy-3,4-dihydro-2H-1-benzopyran-4-yl]-5,7-dihydroxy-3,4-dihydro-2H-1-benzopyran-3-yl] e
ster

> <PUBCHEM_IUPAC_INCHI>
InChI=1S/C37H30O16/c38-16-9-23(44)29-27(10-16)51-35(14-2-4-19(40)22(43)6-14)33(49)31(29)30-24(45)12-20(41)17-11-28(52-37(50)15-7-25(46)32(48)26(47)8-15)34(53-36(17)30)13-1-3-18(39)21(42)5-13/h1-10,12,
28,31,33-35,38-49H,11H2/t28-,31+,33+,34+,35+/m0/s1

> <PUBCHEM_IUPAC_INCHIKEY>
VLFKNLZNDSEVBZ-XOKZLUOPSA-N

> <PUBCHEM_IUPAC_NAME>
[(2R,3S)-2-(3,4-dihydroxyphenyl)-8-[(2R,3R,4R)-2-(3,4-dihydroxyphenyl)-3,5,7-trihydroxy-3,4-dihydro-2H-chromen-4-yl]-5,7-dihydroxy-3,4-dihydro-2H-chromen-3-yl] 3,4,5-trihydroxybenzoate

> <PUBCHEM_IUPAC_NAME_MARKUP>
[(2<I>R</I>,3<I>S</I>)-2-(3,4-dihydroxyphenyl)-8-[(2<I>R</I>,3<I>R</I>,4<I>R</I>)-2-(3,4-dihydroxyphenyl)-3,5,7-trihydroxy-3,4-dihydro-2<I>H</I>-chromen-4-yl]-5,7-dihydroxy-3,4-dihydro-2<I>H</I>-chrom
en-3-yl] 3,4,5-trihydroxybenzoate

> <PUBCHEM_IUPAC_OPENEYE_NAME>
[(2R,3S)-2-(3,4-dihydroxyphenyl)-8-[(2R,3R,4R)-2-(3,4-dihydroxyphenyl)-3,5,7-trihydroxy-chroman-4-yl]-5,7-dihydroxy-chroman-3-yl] 3,4,5-trihydroxybenzoate

> <PUBCHEM_IUPAC_SYSTEMATIC_NAME>
[(2R,3S)-2-[3,4-bis(oxidanyl)phenyl]-8-[(2R,3R,4R)-2-[3,4-bis(oxidanyl)phenyl]-3,5,7-tris(oxidanyl)-3,4-dihydro-2H-chromen-4-yl]-5,7-bis(oxidanyl)-3,4-dihydro-2H-chromen-3-yl] 3,4,5-tris(oxidanyl)benz
oate

> <PUBCHEM_IUPAC_TRADITIONAL_NAME>
3,4,5-trihydroxybenzoic acid [(2R,3S)-2-(3,4-dihydroxyphenyl)-8-[(2R,3R,4R)-2-(3,4-dihydroxyphenyl)-3,5,7-trihydroxy-chroman-4-yl]-5,7-dihydroxy-chroman-3-yl] ester

> <PUBCHEM_MOLECULAR_FORMULA>
C37H30O16

> <PUBCHEM_MOLECULAR_WEIGHT>
730.6

> <PUBCHEM_MONOISOTOPIC_WEIGHT>
730.15338487

> <PUBCHEM_OPENEYE_CAN_SMILES>
C1C(C(OC2=C1C(=CC(=C2C3C(C(OC4=CC(=CC(=C34)O)O)C5=CC(=C(C=C5)O)O)O)O)O)C6=CC(=C(C=C6)O)O)OC(=O)C7=CC(=C(C(=C7)O)O)O

> <PUBCHEM_OPENEYE_ISO_SMILES>
C1[C@@H]([C@H](OC2=C1C(=CC(=C2[C@@H]3[C@H]([C@H](OC4=CC(=CC(=C34)O)O)C5=CC(=C(C=C5)O)O)O)O)O)C6=CC(=C(C=C6)O)O)OC(=O)C7=CC(=C(C(=C7)O)O)O

> <PUBCHEM_TOTAL_CHARGE>
0

> <PUBCHEM_XLOGP3_AA>
3.5

> <RelativeEnergy>
0

> <StereoisomerIndex>
1

> <TautomerIndex>
2

> <LibDock Warning>
no hit found

> <ErrorText>
LibDock failed

$$$$
72193635
  SciTegic09112317153D

 81 87  0  0  0  0            999 V2000
    0.8780   -0.0430   -0.7850 O   0  0  0  1  0  0
   -2.8400   -3.8190   -2.6550 O   0  0  0  1  0  0
    0.7220   -2.9630   -2.6490 O   0  0  0  1  0  0
    3.2910    2.5690    0.1510 O   0  0  0  1  0  0
   -2.1710   -0.5120   -4.4560 O   0  5  0  1  0  0
    0.7950    3.2290   -4.3190 O   0  0  0  1  0  0
   -2.6940    0.7300   -0.9370 O   0  5  0  1  0  0
   -6.8530   -1.4760   -1.6950 O   0  0  0  1  0  0
   -2.4110   -7.0940    1.2270 O   0  0  0  1  0  0
    0.2050    0.1920    4.2730 O   0  0  0  1  0  0
   -0.5740   -5.8300    2.8150 O   0  0  0  1  0  0
    3.7110    2.1640    2.3140 O   0  0  0  1  0  0
    2.4110   -1.1680    5.1490 O   0  0  0  1  0  0
    1.0290    5.7480    4.6940 O   0  0  0  1  0  0
    1.1010    7.0370    0.1480 O   0  0  0  1  0  0
    0.3750    7.5310    2.7350 O   0  0  0  1  0  0
   -1.1680   -1.5430   -1.9980 C   0  0  1  1  0  0
   -0.6730   -2.7670   -2.8190 C   0  0  2  1  0  0
   -0.6470   -0.2910   -2.6020 C   0  0  0  1  0  0
   -1.4430   -4.0520   -2.4540 C   0  0  1  1  0  0
   -2.6640   -1.5190   -1.8700 C   0  0  0  1  0  0
    0.3850    0.4320   -1.9510 C   0  0  0  1  0  0
    2.0780    2.0300   -0.3580 C   0  0  2  1  0  0
    0.8730    1.6400   -2.5270 C   0  0  0  1  0  0
    2.0740    0.4970   -0.2090 C   0  0  1  1  0  0
    1.9410    2.4110   -1.8420 C   0  0  0  1  0  0
   -3.4240   -2.6710   -2.2450 C   0  0  0  1  0  0
   -1.1810    0.1780   -3.8270 C   0  0  0  1  0  0
   -1.2120   -4.5250   -1.0530 C   0  0  0  1  0  0
    0.3380    2.1000   -3.7590 C   0  0  0  1  0  0
   -3.3630   -0.3750   -1.3730 C   0  0  0  1  0  0
    2.1630    0.0550    1.2100 C   0  0  0  1  0  0
   -0.6870    1.3710   -4.4040 C   0  0  0  1  0  0
   -4.8370   -2.6440   -2.1920 C   0  0  0  1  0  0
   -4.7770   -0.3650   -1.3200 C   0  0  0  1  0  0
   -5.5140   -1.4930   -1.7380 C   0  0  0  1  0  0
   -1.9390   -5.6200   -0.5510 C   0  0  0  1  0  0
   -0.2690   -3.8780   -0.2380 C   0  0  0  1  0  0
    1.1140    0.3380    2.1030 C   0  0  0  1  0  0
    3.2960   -0.6440    1.6610 C   0  0  0  1  0  0
   -1.7260   -6.0670    0.7640 C   0  0  0  1  0  0
   -0.0560   -4.3240    1.0770 C   0  0  0  1  0  0
    3.2150    2.8480    1.4490 C   0  0  0  1  0  0
    1.1930   -0.0750    3.4420 C   0  0  0  1  0  0
   -0.7820   -5.4180    1.5810 C   0  0  0  1  0  0
    3.3770   -1.0580    3.0000 C   0  0  0  1  0  0
    2.3280   -0.7770    3.8930 C   0  0  0  1  0  0
    2.4620    4.0900    1.7910 C   0  0  0  1  0  0
    2.1250    5.0080    0.7810 C   0  0  0  1  0  0
    2.0880    4.3450    3.1220 C   0  0  0  1  0  0
    1.3780    5.5140    3.4440 C   0  0  0  1  0  0
    1.4140    6.1800    1.1000 C   0  0  0  1  0  0
    1.0400    6.4330    2.4320 C   0  0  0  1  0  0
   -0.7730   -1.6070   -0.9830 H   0  0  0  1  0  0
   -0.8320   -2.5890   -3.8860 H   0  0  0  1  0  0
   -1.1550   -4.8630   -3.1240 H   0  0  0  1  0  0
    1.2550    2.4680    0.2100 H   0  0  0  1  0  0
    2.9220    0.0770   -0.7510 H   0  0  0  1  0  0
    2.8830    2.2240   -2.3610 H   0  0  0  1  0  0
    1.7470    3.4820   -1.9210 H   0  0  0  1  0  0
   -1.0940    1.7250   -5.3390 H   0  0  0  1  0  0
   -5.4020   -3.5090   -2.5000 H   0  0  0  1  0  0
   -5.3010    0.5110   -0.9620 H   0  0  0  1  0  0
   -2.6640   -6.1200   -1.1770 H   0  0  0  1  0  0
    0.2920   -3.0350   -0.6180 H   0  0  0  1  0  0
    0.2410    0.8750    1.7580 H   0  0  0  1  0  0
    4.1060   -0.8630    0.9790 H   0  0  0  1  0  0
    0.6690   -3.8230    1.7020 H   0  0  0  1  0  0
    4.2490   -1.5950    3.3430 H   0  0  0  1  0  0
    2.4080    4.8210   -0.2450 H   0  0  0  1  0  0
    2.3430    3.6440    3.9040 H   0  0  0  1  0  0
    1.1720   -2.2260   -3.0950 H   0  0  0  1  0  0
    0.4200    3.5270   -5.1560 H   0  0  0  1  0  0
   -7.3450   -2.2570   -1.9770 H   0  0  0  1  0  0
   -3.0550   -7.5290    0.6550 H   0  0  0  1  0  0
   -0.5670    0.6740    3.9490 H   0  0  0  1  0  0
    0.0760   -5.3740    3.3640 H   0  0  0  1  0  0
    3.1960   -1.6500    5.4430 H   0  0  0  1  0  0
    0.3390    6.3960    4.8800 H   0  0  0  1  0  0
    0.6120    7.8390    0.3770 H   0  0  0  1  0  0
    0.3460    7.8300    3.6520 H   0  0  0  1  0  0
  1 22  1  0
  1 25  1  0
  2 20  1  0
  2 27  1  0
  3 18  1  0
  3 72  1  0
  4 23  1  0
  4 43  1  0
  5 28  1  0
  6 30  1  0
  6 73  1  0
  7 31  1  0
  8 36  1  0
  8 74  1  0
  9 41  1  0
  9 75  1  0
 10 44  1  0
 10 76  1  0
 11 45  1  0
 11 77  1  0
 12 43  2  0
 13 47  1  0
 13 78  1  0
 14 51  1  0
 14 79  1  0
 15 52  1  0
 15 80  1  0
 16 53  1  0
 16 81  1  0
 17 18  1  0
 17 19  1  0
 17 21  1  0
 17 54  1  0
 18 20  1  0
 18 55  1  0
 19 22  2  0
 19 28  1  0
 20 29  1  0
 20 56  1  0
 21 27  2  0
 21 31  1  0
 22 24  1  0
 23 25  1  0
 23 26  1  0
 23 57  1  0
 24 26  1  0
 24 30  2  0
 25 32  1  0
 25 58  1  0
 26 59  1  0
 26 60  1  0
 27 34  1  0
 28 33  2  0
 29 37  2  0
 29 38  1  0
 30 33  1  0
 31 35  2  0
 32 39  2  0
 32 40  1  0
 33 61  1  0
 34 36  2  0
 34 62  1  0
 35 36  1  0
 35 63  1  0
 37 41  1  0
 37 64  1  0
 38 42  2  0
 38 65  1  0
 39 44  1  0
 39 66  1  0
 40 46  2  0
 40 67  1  0
 41 45  2  0
 42 45  1  0
 42 68  1  0
 43 48  1  0
 44 47  2  0
 46 47  1  0
 46 69  1  0
 48 49  2  0
 48 50  1  0
 49 52  1  0
 49 70  1  0
 50 51  2  0
 50 71  1  0
 51 53  1  0
 52 53  2  0
M  CHG  2   5  -1   7  -1
M  END
> <Name>
72193635

> <AbsoluteEnergy>
90.973

> <ConfNumber>
1

> <Ionization pH>
6.79_DDPPPPPPPPP

> <IonizationIndex>
2

> <NumberOfIonizations>
2

> <NumberOfStereoisomers>
1

> <NumberOfTautomers>
2

> <OBJECTID>
9223375825019273229

> <PUBCHEM_ATOM_DEF_STEREO_COUNT>
5

> <PUBCHEM_ATOM_UDEF_STEREO_COUNT>
0

> <PUBCHEM_BONDANNOTATIONS>
17  54  6
19  22  8
19  28  8
20  29  6
21  27  8
21  31  8
22  24  8
24  30  8
25  32  5
27  34  8
28  33  8
29  37  8
29  38  8
18  3  6
30  33  8
31  35  8
32  39  8
32  40  8
34  36  8
35  36  8
37  41  8
38  42  8
39  44  8
23  4  6
40  46  8
41  45  8
42  45  8
44  47  8
46  47  8
48  49  8
48  50  8
49  52  8
50  51  8
51  53  8
52  53  8

> <PUBCHEM_BOND_DEF_STEREO_COUNT>
0

> <PUBCHEM_BOND_UDEF_STEREO_COUNT>
0

> <PUBCHEM_CACTVS_COMPLEXITY>
1250

> <PUBCHEM_CACTVS_HBOND_ACCEPTOR>
16

> <PUBCHEM_CACTVS_HBOND_DONOR>
12

> <PUBCHEM_CACTVS_ROTATABLE_BOND>
6

> <PUBCHEM_CACTVS_SUBSKEYS>
AAADceB8PgAAAAAAAAAAAAAAAAAAAAAAAAA0aMGDAAAAAACRVAAAGgAACAAADRSgmAIwDoAABgCIAiDSCAACCAAkIAAIiAEGiMgNNzKGNRqCeSGlwBULuYfK7PzOoAADCAAIQABAAAYQABCAAAAAAAAAAA==

> <PUBCHEM_CACTVS_TAUTO_COUNT>
-1

> <PUBCHEM_CACTVS_TPSA>
288

> <PUBCHEM_COMPONENT_COUNT>
1

> <PUBCHEM_COMPOUND_CANONICALIZED>
1

> <PUBCHEM_COMPOUND_CID>
72193635

> <PUBCHEM_COORDINATE_TYPE>
1
5
255

> <PUBCHEM_EXACT_MASS>
730.15338487

> <PUBCHEM_HEAVY_ATOM_COUNT>
53

> <PUBCHEM_ISOTOPIC_ATOM_COUNT>
0

> <PUBCHEM_IUPAC_CAS_NAME>
3,4,5-trihydroxybenzoic acid [(2R,3S)-2-(3,4-dihydroxyphenyl)-8-[(2R,3R,4R)-2-(3,4-dihydroxyphenyl)-3,5,7-trihydroxy-3,4-dihydro-2H-1-benzopyran-4-yl]-5,7-dihydroxy-3,4-dihydro-2H-1-benzopyran-3-yl] e
ster

> <PUBCHEM_IUPAC_INCHI>
InChI=1S/C37H30O16/c38-16-9-23(44)29-27(10-16)51-35(14-2-4-19(40)22(43)6-14)33(49)31(29)30-24(45)12-20(41)17-11-28(52-37(50)15-7-25(46)32(48)26(47)8-15)34(53-36(17)30)13-1-3-18(39)21(42)5-13/h1-10,12,
28,31,33-35,38-49H,11H2/t28-,31+,33+,34+,35+/m0/s1

> <PUBCHEM_IUPAC_INCHIKEY>
VLFKNLZNDSEVBZ-XOKZLUOPSA-N

> <PUBCHEM_IUPAC_NAME>
[(2R,3S)-2-(3,4-dihydroxyphenyl)-8-[(2R,3R,4R)-2-(3,4-dihydroxyphenyl)-3,5,7-trihydroxy-3,4-dihydro-2H-chromen-4-yl]-5,7-dihydroxy-3,4-dihydro-2H-chromen-3-yl] 3,4,5-trihydroxybenzoate

> <PUBCHEM_IUPAC_NAME_MARKUP>
[(2<I>R</I>,3<I>S</I>)-2-(3,4-dihydroxyphenyl)-8-[(2<I>R</I>,3<I>R</I>,4<I>R</I>)-2-(3,4-dihydroxyphenyl)-3,5,7-trihydroxy-3,4-dihydro-2<I>H</I>-chromen-4-yl]-5,7-dihydroxy-3,4-dihydro-2<I>H</I>-chrom
en-3-yl] 3,4,5-trihydroxybenzoate

> <PUBCHEM_IUPAC_OPENEYE_NAME>
[(2R,3S)-2-(3,4-dihydroxyphenyl)-8-[(2R,3R,4R)-2-(3,4-dihydroxyphenyl)-3,5,7-trihydroxy-chroman-4-yl]-5,7-dihydroxy-chroman-3-yl] 3,4,5-trihydroxybenzoate

> <PUBCHEM_IUPAC_SYSTEMATIC_NAME>
[(2R,3S)-2-[3,4-bis(oxidanyl)phenyl]-8-[(2R,3R,4R)-2-[3,4-bis(oxidanyl)phenyl]-3,5,7-tris(oxidanyl)-3,4-dihydro-2H-chromen-4-yl]-5,7-bis(oxidanyl)-3,4-dihydro-2H-chromen-3-yl] 3,4,5-tris(oxidanyl)benz
oate

> <PUBCHEM_IUPAC_TRADITIONAL_NAME>
3,4,5-trihydroxybenzoic acid [(2R,3S)-2-(3,4-dihydroxyphenyl)-8-[(2R,3R,4R)-2-(3,4-dihydroxyphenyl)-3,5,7-trihydroxy-chroman-4-yl]-5,7-dihydroxy-chroman-3-yl] ester

> <PUBCHEM_MOLECULAR_FORMULA>
C37H30O16

> <PUBCHEM_MOLECULAR_WEIGHT>
730.6

> <PUBCHEM_MONOISOTOPIC_WEIGHT>
730.15338487

> <PUBCHEM_OPENEYE_CAN_SMILES>
C1C(C(OC2=C1C(=CC(=C2C3C(C(OC4=CC(=CC(=C34)O)O)C5=CC(=C(C=C5)O)O)O)O)O)C6=CC(=C(C=C6)O)O)OC(=O)C7=CC(=C(C(=C7)O)O)O

> <PUBCHEM_OPENEYE_ISO_SMILES>
C1[C@@H]([C@H](OC2=C1C(=CC(=C2[C@@H]3[C@H]([C@H](OC4=CC(=CC(=C34)O)O)C5=CC(=C(C=C5)O)O)O)O)O)C6=CC(=C(C=C6)O)O)OC(=O)C7=CC(=C(C(=C7)O)O)O

> <PUBCHEM_TOTAL_CHARGE>
0

> <PUBCHEM_XLOGP3_AA>
3.5

> <RelativeEnergy>
0

> <StereoisomerIndex>
1

> <TautomerIndex>
1

> <LibDock Warning>
no hit found

> <ErrorText>
LibDock failed

$$$$
72193635
  SciTegic09112317153D

 81 87  0  0  0  0            999 V2000
    0.2920   -0.3880   -0.7730 O   0  0  0  1  0  0
   -3.7510   -4.1980   -0.8020 O   0  0  0  1  0  0
   -0.1720   -3.4080   -0.7830 O   0  0  0  1  0  0
    3.1420    1.9160   -1.0750 O   0  0  0  1  0  0
   -3.0780   -1.8400   -3.8590 O   0  5  0  1  0  0
    0.4240    1.0340   -5.3720 O   0  0  0  1  0  0
   -3.5660    0.5840   -1.6710 O   0  5  0  1  0  0
   -7.7180   -1.7560   -1.7110 O   0  0  0  1  0  0
   -3.8740   -5.0620    4.2420 O   0  0  0  1  0  0
    4.0070   -0.5410    3.6780 O   0  0  0  1  0  0
   -2.2570   -3.0550    5.1590 O   0  0  0  1  0  0
    2.2930    3.9160   -1.8120 O   0  0  0  1  0  0
    2.1100    0.8700    5.0530 O   0  0  0  1  0  0
    4.9190    7.3280    0.6710 O   0  0  0  1  0  0
    7.4310    3.1720    1.1030 O   0  0  0  1  0  0
    7.1200    5.8840    1.5030 O   0  0  0  1  0  0
   -2.0490   -1.8860   -1.2040 C   0  0  1  1  0  0
   -1.5260   -3.3490   -1.2070 C   0  0  2  1  0  0
   -1.3940   -1.1180   -2.2920 C   0  0  0  1  0  0
   -2.4000   -4.2720   -0.3350 C   0  0  1  1  0  0
   -3.5460   -1.8200   -1.3010 C   0  0  0  1  0  0
   -0.2150   -0.3760   -2.0270 C   0  0  0  1  0  0
    1.8250    1.4300   -1.2940 C   0  0  2  1  0  0
    0.4040    0.3680   -3.0720 C   0  0  0  1  0  0
    1.5980    0.1320   -0.4960 C   0  0  1  1  0  0
    1.6270    1.1630   -2.7940 C   0  0  0  1  0  0
   -4.3180   -3.0130   -1.1210 C   0  0  0  1  0  0
   -1.9480   -1.1300   -3.5960 C   0  0  0  1  0  0
   -2.3630   -3.9480    1.1250 C   0  0  0  1  0  0
   -0.1550    0.3470   -4.3760 C   0  0  0  1  0  0
   -4.2370   -0.5950   -1.5570 C   0  0  0  1  0  0
    1.7350    0.3270    0.9750 C   0  0  0  1  0  0
   -1.3260   -0.4000   -4.6350 C   0  0  0  1  0  0
   -5.7230   -2.9830   -1.2740 C   0  0  0  1  0  0
   -5.6440   -0.5800   -1.7000 C   0  0  0  1  0  0
   -6.3860   -1.7720   -1.5670 C   0  0  0  1  0  0
   -3.1580   -4.6750    2.0280 C   0  0  0  1  0  0
   -1.5320   -2.9190    1.5970 C   0  0  0  1  0  0
    2.8370   -0.2130    1.6580 C   0  0  0  1  0  0
    0.7600    1.0510    1.6810 C   0  0  0  1  0  0
   -3.1260   -4.3770    3.4010 C   0  0  0  1  0  0
   -1.4980   -2.6170    2.9690 C   0  0  0  1  0  0
    3.2040    3.2460   -1.1140 C   0  0  0  1  0  0
    2.9700   -0.0310    3.0450 C   0  0  0  1  0  0
   -2.2930   -3.3440    3.8730 C   0  0  0  1  0  0
    0.8900    1.2350    3.0680 C   0  0  0  1  0  0
    1.9940    0.6940    3.7530 C   0  0  0  1  0  0
    4.1760    3.9020   -0.4560 C   0  0  0  1  0  0
    5.3750    3.1860    0.0240 C   0  0  0  1  0  0
    4.0660    5.3520   -0.1980 C   0  0  0  1  0  0
    5.0390    6.0200    0.4510 C   0  0  0  1  0  0
    6.3590    3.8380    0.6780 C   0  0  0  1  0  0
    6.2390    5.2920    0.9220 C   0  0  0  1  0  0
   -1.7790   -1.4100   -0.2580 H   0  0  0  1  0  0
   -1.5490   -3.7510   -2.2240 H   0  0  0  1  0  0
   -2.0810   -5.3080   -0.4460 H   0  0  0  1  0  0
    1.1250    2.2030   -0.9630 H   0  0  0  1  0  0
    2.3280   -0.6180   -0.8090 H   0  0  0  1  0  0
    2.4840    0.6150   -3.1880 H   0  0  0  1  0  0
    1.5930    2.1150   -3.3270 H   0  0  0  1  0  0
   -1.7480   -0.4140   -5.6310 H   0  0  0  1  0  0
   -6.2940   -3.8920   -1.1590 H   0  0  0  1  0  0
   -6.1570    0.3440   -1.9140 H   0  0  0  1  0  0
   -3.7970   -5.4690    1.6690 H   0  0  0  1  0  0
   -0.9180   -2.3560    0.9100 H   0  0  0  1  0  0
    3.5890   -0.7710    1.1160 H   0  0  0  1  0  0
   -0.0900    1.4700    1.1620 H   0  0  0  1  0  0
   -0.8590   -1.8240    3.3280 H   0  0  0  1  0  0
    0.1400    1.7920    3.6100 H   0  0  0  1  0  0
    5.4710    2.1230   -0.1490 H   0  0  0  1  0  0
    3.1910    5.8920   -0.5370 H   0  0  0  1  0  0
    0.3640   -3.0090   -1.4850 H   0  0  0  1  0  0
    0.0310    1.0070   -6.2540 H   0  0  0  1  0  0
   -8.1600   -0.9230   -1.9120 H   0  0  0  1  0  0
   -4.4390   -5.7670    3.9040 H   0  0  0  1  0  0
    3.9760   -0.6330    4.6410 H   0  0  0  1  0  0
   -2.8060   -3.5590    5.7740 H   0  0  0  1  0  0
    2.9650    0.7220    5.4760 H   0  0  0  1  0  0
    4.1300    7.7890    0.3590 H   0  0  0  1  0  0
    8.1270    3.6490    1.5710 H   0  0  0  1  0  0
    2.3230    4.8830   -1.8250 H   0  0  0  1  0  0
  1 22  1  0
  1 25  1  0
  2 20  1  0
  2 27  1  0
  3 18  1  0
  3 72  1  0
  4 23  1  0
  4 43  1  0
  5 28  1  0
  6 30  1  0
  6 73  1  0
  7 31  1  0
  8 36  1  0
  8 74  1  0
  9 41  1  0
  9 75  1  0
 10 44  1  0
 10 76  1  0
 11 45  1  0
 11 77  1  0
 12 43  1  0
 12 81  1  0
 13 47  1  0
 13 78  1  0
 14 51  1  0
 14 79  1  0
 15 52  1  0
 15 80  1  0
 16 53  2  0
 17 18  1  0
 17 19  1  0
 17 21  1  0
 17 54  1  0
 18 20  1  0
 18 55  1  0
 19 22  2  0
 19 28  1  0
 20 29  1  0
 20 56  1  0
 21 27  2  0
 21 31  1  0
 22 24  1  0
 23 25  1  0
 23 26  1  0
 23 57  1  0
 24 26  1  0
 24 30  2  0
 25 32  1  0
 25 58  1  0
 26 59  1  0
 26 60  1  0
 27 34  1  0
 28 33  2  0
 29 37  2  0
 29 38  1  0
 30 33  1  0
 31 35  2  0
 32 39  2  0
 32 40  1  0
 33 61  1  0
 34 36  2  0
 34 62  1  0
 35 36  1  0
 35 63  1  0
 37 41  1  0
 37 64  1  0
 38 42  2  0
 38 65  1  0
 39 44  1  0
 39 66  1  0
 40 46  2  0
 40 67  1  0
 41 45  2  0
 42 45  1  0
 42 68  1  0
 43 48  2  0
 44 47  2  0
 46 47  1  0
 46 69  1  0
 48 49  1  0
 48 50  1  0
 49 52  2  0
 49 70  1  0
 50 51  2  0
 50 71  1  0
 51 53  1  0
 52 53  1  0
M  CHG  2   5  -1   7  -1
M  END
> <Name>
72193635

> <AbsoluteEnergy>
85.1977

> <ConfNumber>
1

> <Ionization pH>
6.79_DDPPPPPPPPP

> <IonizationIndex>
2

> <NumberOfIonizations>
2

> <NumberOfStereoisomers>
1

> <NumberOfTautomers>
2

> <OBJECTID>
9223375829314240525

> <PUBCHEM_ATOM_DEF_STEREO_COUNT>
5

> <PUBCHEM_ATOM_UDEF_STEREO_COUNT>
0

> <PUBCHEM_BONDANNOTATIONS>
17  54  6
19  22  8
19  28  8
20  29  6
21  27  8
21  31  8
22  24  8
24  30  8
25  32  5
27  34  8
28  33  8
29  37  8
29  38  8
18  3  6
30  33  8
31  35  8
32  39  8
32  40  8
34  36  8
35  36  8
37  41  8
38  42  8
39  44  8
23  4  6
40  46  8
41  45  8
42  45  8
44  47  8
46  47  8
48  49  8
48  50  8
49  52  8
50  51  8
51  53  8
52  53  8

> <PUBCHEM_BOND_DEF_STEREO_COUNT>
0

> <PUBCHEM_BOND_UDEF_STEREO_COUNT>
0

> <PUBCHEM_CACTVS_COMPLEXITY>
1250

> <PUBCHEM_CACTVS_HBOND_ACCEPTOR>
16

> <PUBCHEM_CACTVS_HBOND_DONOR>
12

> <PUBCHEM_CACTVS_ROTATABLE_BOND>
6

> <PUBCHEM_CACTVS_SUBSKEYS>
AAADceB8PgAAAAAAAAAAAAAAAAAAAAAAAAA0aMGDAAAAAACRVAAAGgAACAAADRSgmAIwDoAABgCIAiDSCAACCAAkIAAIiAEGiMgNNzKGNRqCeSGlwBULuYfK7PzOoAADCAAIQABAAAYQABCAAAAAAAAAAA==

> <PUBCHEM_CACTVS_TAUTO_COUNT>
-1

> <PUBCHEM_CACTVS_TPSA>
288

> <PUBCHEM_COMPONENT_COUNT>
1

> <PUBCHEM_COMPOUND_CANONICALIZED>
1

> <PUBCHEM_COMPOUND_CID>
72193635

> <PUBCHEM_COORDINATE_TYPE>
1
5
255

> <PUBCHEM_EXACT_MASS>
730.15338487

> <PUBCHEM_HEAVY_ATOM_COUNT>
53

> <PUBCHEM_ISOTOPIC_ATOM_COUNT>
0

> <PUBCHEM_IUPAC_CAS_NAME>
3,4,5-trihydroxybenzoic acid [(2R,3S)-2-(3,4-dihydroxyphenyl)-8-[(2R,3R,4R)-2-(3,4-dihydroxyphenyl)-3,5,7-trihydroxy-3,4-dihydro-2H-1-benzopyran-4-yl]-5,7-dihydroxy-3,4-dihydro-2H-1-benzopyran-3-yl] e
ster

> <PUBCHEM_IUPAC_INCHI>
InChI=1S/C37H30O16/c38-16-9-23(44)29-27(10-16)51-35(14-2-4-19(40)22(43)6-14)33(49)31(29)30-24(45)12-20(41)17-11-28(52-37(50)15-7-25(46)32(48)26(47)8-15)34(53-36(17)30)13-1-3-18(39)21(42)5-13/h1-10,12,
28,31,33-35,38-49H,11H2/t28-,31+,33+,34+,35+/m0/s1

> <PUBCHEM_IUPAC_INCHIKEY>
VLFKNLZNDSEVBZ-XOKZLUOPSA-N

> <PUBCHEM_IUPAC_NAME>
[(2R,3S)-2-(3,4-dihydroxyphenyl)-8-[(2R,3R,4R)-2-(3,4-dihydroxyphenyl)-3,5,7-trihydroxy-3,4-dihydro-2H-chromen-4-yl]-5,7-dihydroxy-3,4-dihydro-2H-chromen-3-yl] 3,4,5-trihydroxybenzoate

> <PUBCHEM_IUPAC_NAME_MARKUP>
[(2<I>R</I>,3<I>S</I>)-2-(3,4-dihydroxyphenyl)-8-[(2<I>R</I>,3<I>R</I>,4<I>R</I>)-2-(3,4-dihydroxyphenyl)-3,5,7-trihydroxy-3,4-dihydro-2<I>H</I>-chromen-4-yl]-5,7-dihydroxy-3,4-dihydro-2<I>H</I>-chrom
en-3-yl] 3,4,5-trihydroxybenzoate

> <PUBCHEM_IUPAC_OPENEYE_NAME>
[(2R,3S)-2-(3,4-dihydroxyphenyl)-8-[(2R,3R,4R)-2-(3,4-dihydroxyphenyl)-3,5,7-trihydroxy-chroman-4-yl]-5,7-dihydroxy-chroman-3-yl] 3,4,5-trihydroxybenzoate

> <PUBCHEM_IUPAC_SYSTEMATIC_NAME>
[(2R,3S)-2-[3,4-bis(oxidanyl)phenyl]-8-[(2R,3R,4R)-2-[3,4-bis(oxidanyl)phenyl]-3,5,7-tris(oxidanyl)-3,4-dihydro-2H-chromen-4-yl]-5,7-bis(oxidanyl)-3,4-dihydro-2H-chromen-3-yl] 3,4,5-tris(oxidanyl)benz
oate

> <PUBCHEM_IUPAC_TRADITIONAL_NAME>
3,4,5-trihydroxybenzoic acid [(2R,3S)-2-(3,4-dihydroxyphenyl)-8-[(2R,3R,4R)-2-(3,4-dihydroxyphenyl)-3,5,7-trihydroxy-chroman-4-yl]-5,7-dihydroxy-chroman-3-yl] ester

> <PUBCHEM_MOLECULAR_FORMULA>
C37H30O16

> <PUBCHEM_MOLECULAR_WEIGHT>
730.6

> <PUBCHEM_MONOISOTOPIC_WEIGHT>
730.15338487

> <PUBCHEM_OPENEYE_CAN_SMILES>
C1C(C(OC2=C1C(=CC(=C2C3C(C(OC4=CC(=CC(=C34)O)O)C5=CC(=C(C=C5)O)O)O)O)O)C6=CC(=C(C=C6)O)O)OC(=O)C7=CC(=C(C(=C7)O)O)O

> <PUBCHEM_OPENEYE_ISO_SMILES>
C1[C@@H]([C@H](OC2=C1C(=CC(=C2[C@@H]3[C@H]([C@H](OC4=CC(=CC(=C34)O)O)C5=CC(=C(C=C5)O)O)O)O)O)C6=CC(=C(C=C6)O)O)OC(=O)C7=CC(=C(C(=C7)O)O)O

> <PUBCHEM_TOTAL_CHARGE>
0

> <PUBCHEM_XLOGP3_AA>
3.5

> <RelativeEnergy>
0

> <StereoisomerIndex>
1

> <TautomerIndex>
2

> <LibDock Warning>
no hit found

> <ErrorText>
LibDock failed

$$$$
1176
  SciTegic09112317153D

  8  7  0  0  0  0            999 V2000
   -1.7050   -0.0040    0.0000 O   0  0  0  1  0  0
    0.1910    1.1780    0.0000 N   0  0  0  1  0  0
    0.1950   -1.1800    0.0000 N   0  0  0  1  0  0
   -0.4960   -0.0020    0.0000 C   0  0  0  1  0  0
   -0.2770    2.0600    0.0000 H   0  0  0  1  0  0
    1.1910    1.1780    0.0000 H   0  0  0  1  0  0
   -0.2950   -2.0530    0.0000 H   0  0  0  1  0  0
    1.1950   -1.1760    0.0000 H   0  0  0  1  0  0
  1  4  2  0
  2  4  1  0
  2  5  1  0
  2  6  1  0
  3  4  1  0
  3  7  1  0
  3  8  1  0
M  END
> <Name>
1176

> <AbsoluteEnergy>
3.26116

> <ConfNumber>
1

> <IonizationIndex>
1

> <NumberOfIonizations>
1

> <NumberOfStereoisomers>
1

> <NumberOfTautomers>
1

> <OBJECTID>
9223375919508553741

> <PUBCHEM_ATOM_DEF_STEREO_COUNT>
0

> <PUBCHEM_ATOM_UDEF_STEREO_COUNT>
0

> <PUBCHEM_BOND_DEF_STEREO_COUNT>
0

> <PUBCHEM_BOND_UDEF_STEREO_COUNT>
0

> <PUBCHEM_CACTVS_TAUTO_COUNT>
2

> <PUBCHEM_COMPONENT_COUNT>
1

> <PUBCHEM_COMPOUND_CID>
1176

> <PUBCHEM_CONFORMER_DIVERSEORDER>
1

> <PUBCHEM_CONFORMER_ID>
49800000001

> <PUBCHEM_CONFORMER_RMSD>
0.4

> <PUBCHEM_COORDINATE_TYPE>
2
5
10

> <PUBCHEM_EFFECTIVE_ROTOR_COUNT>
0

> <PUBCHEM_FEATURE_SELFOVERLAP>
15.275

> <PUBCHEM_HEAVY_ATOM_COUNT>
4

> <PUBCHEM_ISOTOPIC_ATOM_COUNT>
0

> <PUBCHEM_MMFF94_ENERGY>
4.7461

> <PUBCHEM_MMFF94_PARTIAL_CHARGES>
8
1 -0.57
2 -0.8
3 -0.8
4 0.69
5 0.37
6 0.37
7 0.37
8 0.37

> <PUBCHEM_PHARMACOPHORE_FEATURES>
3
1 1 acceptor
1 2 donor
1 3 donor

> <PUBCHEM_SHAPE_FINGERPRINT>
139733 1 9294127255164527427
20096714 4 18195247955924807585
21015797 1 8790888471064714409
5943 1 14949611921259690529

> <PUBCHEM_SHAPE_MULTIPOLES>
66.49
1.16
1.14
0.54
0
0.35
0
-0.42
0
0
0
0
0
0

> <PUBCHEM_SHAPE_SELFOVERLAP>
115.786

> <PUBCHEM_SHAPE_VOLUME>
44.1

> <RelativeEnergy>
0

> <StereoisomerIndex>
1

> <TautomerIndex>
1

> <LibDock Warning>
no hit found

> <ErrorText>
LibDock failed

$$$$
2153
  SciTegic09112317153D

 22 23  0  0  0  0            999 V2000
   -1.1860    2.6920    0.0920 O   0  0  0  1  0  0
   -2.0430   -1.7460    0.0130 O   0  0  0  1  0  0
    0.1350   -1.2030   -0.0260 N   0  0  0  1  0  0
   -1.6820    0.4710    0.0530 N   0  0  0  1  0  0
    1.7870    1.9810    0.0080 N   0  0  0  1  0  0
    2.4450   -0.1800   -0.0590 N   0  3  0  1  0  0
    1.1040   -0.0680   -0.0240 C   0  0  0  1  0  0
    0.6270    1.2050    0.0170 C   0  0  0  1  0  0
   -0.8070    1.5430    0.0560 C   0  0  0  1  0  0
   -1.2250   -0.8530    0.0130 C   0  0  0  1  0  0
    0.5760   -2.6110   -0.0670 C   0  0  0  1  0  0
   -3.1350    0.7360    0.0920 C   0  0  0  1  0  0
    2.9220    1.1350   -0.0390 C   0  0  0  1  0  0
    0.0120   -3.2850    0.5780 H   0  0  0  1  0  0
    1.6250   -2.6660    0.2280 H   0  0  0  1  0  0
    0.4980   -2.9820   -1.0880 H   0  0  0  1  0  0
   -3.6500   -0.0080   -0.5140 H   0  0  0  1  0  0
   -3.4670    0.7600    1.1290 H   0  0  0  1  0  0
   -3.3320    1.7150   -0.3440 H   0  0  0  1  0  0
    3.9470    1.4790   -0.0570 H   0  0  0  1  0  0
    1.8140    2.9750    0.0330 H   0  0  0  1  0  0
    3.0330   -1.0880   -0.0960 H   0  0  0  1  0  0
  1  9  2  0
  2 10  2  0
  3  7  1  0
  3 10  1  0
  3 11  1  0
  4  9  1  0
  4 10  1  0
  4 12  1  0
  5  8  1  0
  5 13  1  0
  5 21  1  0
  6  7  1  0
  6 13  2  0
  6 22  1  0
  7  8  2  0
  8  9  1  0
 11 14  1  0
 11 15  1  0
 11 16  1  0
 12 17  1  0
 12 18  1  0
 12 19  1  0
 13 20  1  0
M  CHG  1   6   1
M  END
> <Name>
2153

> <AbsoluteEnergy>
69.8975

> <ConfNumber>
1

> <Ionization pH>
7.5

> <IonizationIndex>
1

> <NumberOfIonizations>
1

> <NumberOfStereoisomers>
1

> <NumberOfTautomers>
2

> <OBJECTID>
9223375923803521037

> <PUBCHEM_ATOM_DEF_STEREO_COUNT>
0

> <PUBCHEM_ATOM_UDEF_STEREO_COUNT>
0

> <PUBCHEM_BOND_DEF_STEREO_COUNT>
0

> <PUBCHEM_BOND_UDEF_STEREO_COUNT>
0

> <PUBCHEM_CACTVS_TAUTO_COUNT>
3

> <PUBCHEM_COMPONENT_COUNT>
1

> <PUBCHEM_COMPOUND_CID>
2153

> <PUBCHEM_CONFORMER_DIVERSEORDER>
1

> <PUBCHEM_CONFORMER_ID>
86900000001

> <PUBCHEM_CONFORMER_RMSD>
0.4

> <PUBCHEM_COORDINATE_TYPE>
2
5
10

> <PUBCHEM_EFFECTIVE_ROTOR_COUNT>
0

> <PUBCHEM_FEATURE_SELFOVERLAP>
30.561

> <PUBCHEM_HEAVY_ATOM_COUNT>
13

> <PUBCHEM_ISOTOPIC_ATOM_COUNT>
0

> <PUBCHEM_MMFF94_ENERGY>
19.6157

> <PUBCHEM_MMFF94_PARTIAL_CHARGES>
15
1 -0.57
10 0.69
11 0.3
12 0.3
13 0.04
14 0.27
2 -0.57
21 0.15
3 -0.42
4 -0.42
5 0.03
6 -0.57
7 0.29
8 -0.24
9 0.71

> <PUBCHEM_PHARMACOPHORE_FEATURES>
6
1 1 acceptor
1 2 acceptor
1 5 donor
3 5 6 13 cation
5 5 6 7 8 13 rings
6 3 4 7 8 9 10 rings

> <PUBCHEM_SHAPE_FINGERPRINT>
10967382 1 18266458715508146407
11206711 2 18337388365482706191
13140716 1 18410855442974673353
13380535 76 18265609892758545043
16945 1 18194682562076654244
193761 8 17834395622774169607
20588541 1 18339083662036224325
21040471 1 18410575119307686368
22802520 49 18129681698333213990
2334 1 18338797921956457219
23402539 116 18199453523539890678
23463225 33 18335419036872571426
23552423 10 18260832613519911294
23559900 14 18343306947309073902
241688 4 18410854382128424057
2748010 2 18410857684958150983
5084963 1 18130509724835564474
528886 8 18411132515625768553
66348 1 18410572864170268163

> <PUBCHEM_SHAPE_MULTIPOLES>
235.87
3.57
2.67
0.57
0.2
0.72
0
-0.55
0
-0.6
0
0
0.01
0

> <PUBCHEM_SHAPE_SELFOVERLAP>
510.178

> <PUBCHEM_SHAPE_VOLUME>
130.4

> <RelativeEnergy>
0

> <StereoisomerIndex>
1

> <TautomerIndex>
1

> <LibDock Warning>
no hit found

> <ErrorText>
LibDock failed

$$$$
2153
  SciTegic09112317153D

 22 23  0  0  0  0            999 V2000
    2.0800   -2.0650    0.1840 O   0  0  0  1  0  0
    0.8420    2.3980    0.0640 O   0  0  0  1  0  0
   -0.8400    0.9080   -0.0740 N   0  0  0  1  0  0
    1.4830    0.2320    0.1250 N   0  0  0  1  0  0
   -0.8420   -2.6490   -0.0650 N   0  0  0  1  0  0
   -2.2690   -0.9610   -0.1910 N   0  3  0  1  0  0
   -1.1870   -0.4220   -0.1000 C   0  0  0  1  0  0
   -0.1620   -1.4340   -0.0100 C   0  0  0  1  0  0
    1.1470   -1.1170    0.1010 C   0  0  0  1  0  0
    0.5100    1.2340    0.0390 C   0  0  0  1  0  0
   -1.8750    1.9530   -0.1680 C   0  0  0  1  0  0
    2.9050    0.6090    0.2460 C   0  0  0  1  0  0
   -2.0760   -2.2950   -0.1720 C   0  0  0  1  0  0
   -2.8770    1.5880   -0.3950 H   0  0  0  1  0  0
   -1.5980    2.6660   -0.9430 H   0  0  0  1  0  0
   -1.9260    2.4940    0.7790 H   0  0  0  1  0  0
    3.2930    0.2420    1.1950 H   0  0  0  1  0  0
    3.4490    0.2360   -0.6210 H   0  0  0  1  0  0
    2.9890    1.6970    0.2500 H   0  0  0  1  0  0
   -2.8940   -2.9980   -0.2380 H   0  0  0  1  0  0
   -3.1600   -0.5100   -0.2680 H   0  0  0  1  0  0
    3.0080   -1.8090    0.2620 H   0  0  0  1  0  0
  1  9  1  0
  1 22  1  0
  2 10  2  0
  3  7  1  0
  3 10  1  0
  3 11  1  0
  4  9  1  0
  4 10  1  0
  4 12  1  0
  5  8  1  0
  5 13  2  0
  6  7  2  0
  6 13  1  0
  6 21  1  0
  7  8  1  0
  8  9  2  0
 11 14  1  0
 11 15  1  0
 11 16  1  0
 12 17  1  0
 12 18  1  0
 12 19  1  0
 13 20  1  0
M  CHG  1   6   1
M  END
> <Name>
2153

> <AbsoluteEnergy>
30.3007

> <ConfNumber>
1

> <Ionization pH>
7.5

> <IonizationIndex>
1

> <NumberOfIonizations>
1

> <NumberOfStereoisomers>
1

> <NumberOfTautomers>
2

> <OBJECTID>
9223375928098488333

> <PUBCHEM_ATOM_DEF_STEREO_COUNT>
0

> <PUBCHEM_ATOM_UDEF_STEREO_COUNT>
0

> <PUBCHEM_BOND_DEF_STEREO_COUNT>
0

> <PUBCHEM_BOND_UDEF_STEREO_COUNT>
0

> <PUBCHEM_CACTVS_TAUTO_COUNT>
3

> <PUBCHEM_COMPONENT_COUNT>
1

> <PUBCHEM_COMPOUND_CID>
2153

> <PUBCHEM_CONFORMER_DIVERSEORDER>
1

> <PUBCHEM_CONFORMER_ID>
86900000001

> <PUBCHEM_CONFORMER_RMSD>
0.4

> <PUBCHEM_COORDINATE_TYPE>
2
5
10

> <PUBCHEM_EFFECTIVE_ROTOR_COUNT>
0

> <PUBCHEM_FEATURE_SELFOVERLAP>
30.561

> <PUBCHEM_HEAVY_ATOM_COUNT>
13

> <PUBCHEM_ISOTOPIC_ATOM_COUNT>
0

> <PUBCHEM_MMFF94_ENERGY>
19.6157

> <PUBCHEM_MMFF94_PARTIAL_CHARGES>
15
1 -0.57
10 0.69
11 0.3
12 0.3
13 0.04
14 0.27
2 -0.57
21 0.15
3 -0.42
4 -0.42
5 0.03
6 -0.57
7 0.29
8 -0.24
9 0.71

> <PUBCHEM_PHARMACOPHORE_FEATURES>
6
1 1 acceptor
1 2 acceptor
1 5 donor
3 5 6 13 cation
5 5 6 7 8 13 rings
6 3 4 7 8 9 10 rings

> <PUBCHEM_SHAPE_FINGERPRINT>
10967382 1 18266458715508146407
11206711 2 18337388365482706191
13140716 1 18410855442974673353
13380535 76 18265609892758545043
16945 1 18194682562076654244
193761 8 17834395622774169607
20588541 1 18339083662036224325
21040471 1 18410575119307686368
22802520 49 18129681698333213990
2334 1 18338797921956457219
23402539 116 18199453523539890678
23463225 33 18335419036872571426
23552423 10 18260832613519911294
23559900 14 18343306947309073902
241688 4 18410854382128424057
2748010 2 18410857684958150983
5084963 1 18130509724835564474
528886 8 18411132515625768553
66348 1 18410572864170268163

> <PUBCHEM_SHAPE_MULTIPOLES>
235.87
3.57
2.67
0.57
0.2
0.72
0
-0.55
0
-0.6
0
0
0.01
0

> <PUBCHEM_SHAPE_SELFOVERLAP>
510.178

> <PUBCHEM_SHAPE_VOLUME>
130.4

> <RelativeEnergy>
0

> <StereoisomerIndex>
1

> <TautomerIndex>
2

> <LibDock Warning>
no hit found

> <ErrorText>
LibDock failed

$$$$
